   39
jmolscript: load "" {1 1 1} spacegroup "x,y,z" unitcell [{      8.415900     0.000000     0.000000 }, {      4.207950     7.288380     0.000000 }, {      0.000000     0.000000    24.000001 }]
Pt     0.000000     0.000000     0.000000    -0.041964
Pt     2.805301     4.858922     0.000000    -0.041084
Pt     1.402649     2.429458     0.000000    -0.035495
Pt     2.805297     0.000000     0.000000    -0.046626
Pt     5.610599     4.858922     0.000000    -0.031255
Pt     4.207946     2.429458     0.000000    -0.028562
Pt     5.610603     0.000000     0.000000    -0.029288
Pt     8.415904     4.858922     0.000000    -0.032855
Pt     7.013251     2.429458     0.000000    -0.022153
Pt     4.207950     5.668741     2.290536     0.070768
Pt     2.805301     3.239284     2.290536     0.051548
Pt     1.402649     0.809819     2.290536     0.092492
Pt     7.013247     5.668741     2.290536     0.060511
Pt     5.610599     3.239284     2.290536     0.013097
Pt     4.207946     0.809819     2.290536     0.052872
Pt     9.818553     5.668741     2.290536     0.056982
Pt     8.415904     3.239284     2.290536     0.032745
Pt     7.013251     0.809819     2.290536     0.052101
Pt     5.610599     6.478561     4.581048    -0.162146
Pt     4.207950     4.049103     4.581048     0.012947
Pt     2.805297     1.619638     4.581048    -0.109326
Pt     8.415904     6.478561     4.581048    -0.085020
Pt     7.013256     4.049103     4.581048     0.008542
Pt     5.610603     1.619638     4.581048     0.025699
Pt    11.221201     6.478561     4.581048    -0.055514
Pt     9.818553     4.049103     4.581048     0.065778
Pt     8.415900     1.619638     4.581048    -0.163882
C      7.883001     3.887819     7.474584    -0.008946
C      6.638395     3.574323     6.605640     0.145661
C      6.066492     2.144635     6.624768     0.067916
O      9.193369     3.544004     7.004496    -0.360007
O      5.582258     4.380156     7.103256    -0.403162
O      6.836122     1.173699     7.255584    -0.378618
H      7.718634     3.402172     8.453856     0.105446
H      5.072154     2.153920     7.095192     0.111273
H      7.905059     4.978437     7.607016     0.100569
H      7.620421     0.975491     6.672024     0.279465
H      9.249954     2.570517     6.876144     0.311474
H      5.740456     5.312609     6.815328     0.318016
 
 Chargemol version 3.5 September 26, 2017.
See ddec.sourceforge.net for latest version.
 
Computational parameters:
Number of radial integration shells =    100
Cutoff radius (pm) =    500
Error in the integrated total number of electrons before renormalization (e) =    7.6654E-05
Charge convergence tolerance =    1.0000E-05
Minimum radius for electron cloud penetration fitting (pm) =    200
Minimum decay exponent for electron density of buried atom tails =   1.7500
Maximum decay exponent for electron density of buried atom tails =  2.5000
Number of iterations to convergence =      7
 
The following XYZ coordinates are in angstroms. The atomic dipoles and quadrupoles are in atomic units.
atom number, atomic symbol, x, y, z, net_charge, dipole_x, dipole_y, dipole_z, dipole_mag, Qxy, Qxz, Qyz,Q(x^2-y^2), Q(3z^2 - R^2), three eigenvalues of traceless quadrupole moment tensor
    1 Pt     0.000000     0.000000     0.000000    -0.041964    -0.000885    -0.001186    -0.117556     0.117565     0.002881     0.000803    -0.001634     0.000073     0.150088    -0.027934    -0.022138     0.050072
    2 Pt     2.805301     4.858922     0.000000    -0.041084     0.000099    -0.001351    -0.101768     0.101777     0.003599    -0.002476    -0.004105    -0.001196     0.119693    -0.023607    -0.016696     0.040303
    3 Pt     1.402649     2.429458     0.000000    -0.035495    -0.003929     0.002025    -0.108244     0.108334     0.002769     0.011412     0.004922    -0.008911     0.152496    -0.031858    -0.020931     0.052790
    4 Pt     2.805297     0.000000     0.000000    -0.046626     0.002972    -0.000416    -0.112285     0.112326    -0.001342    -0.006929     0.000631     0.008166     0.117485    -0.023883    -0.016153     0.040036
    5 Pt     5.610599     4.858922     0.000000    -0.031255    -0.002084    -0.001310    -0.106817     0.106845    -0.002870     0.005741    -0.003470    -0.001014     0.166245    -0.030681    -0.025287     0.055968
    6 Pt     4.207946     2.429458     0.000000    -0.028562     0.002861     0.001259    -0.110212     0.110257    -0.001736    -0.004273     0.000671    -0.003519     0.203445    -0.036512    -0.031485     0.067997
    7 Pt     5.610603     0.000000     0.000000    -0.029288     0.000944     0.002438    -0.111764     0.111795    -0.003590    -0.003591    -0.003194     0.004002     0.188364    -0.035717    -0.027307     0.063024
    8 Pt     8.415904     4.858922     0.000000    -0.032855     0.003594    -0.002064    -0.105614     0.105695    -0.002171    -0.005297    -0.000078     0.003055     0.175257    -0.031937    -0.026807     0.058743
    9 Pt     7.013251     2.429458     0.000000    -0.022153    -0.000619     0.000654    -0.109567     0.109571    -0.000789    -0.003894     0.004436     0.000433     0.237167    -0.040360    -0.038991     0.079351
   10 Pt     4.207950     5.668741     2.290536     0.070768    -0.000208     0.001925    -0.001457     0.002423    -0.003274     0.003927     0.009951    -0.010613     0.089595    -0.022074    -0.010337     0.032410
   11 Pt     2.805301     3.239284     2.290536     0.051548     0.006008    -0.007138    -0.017243     0.019605     0.000918     0.002021    -0.008666     0.010521     0.059377    -0.017333    -0.004606     0.021940
   12 Pt     1.402649     0.809819     2.290536     0.092492    -0.000374     0.000021     0.019631     0.019635    -0.000533     0.001396    -0.001296     0.009008     0.130280    -0.026270    -0.017213     0.043483
   13 Pt     7.013247     5.668741     2.290536     0.060511    -0.000271     0.021901    -0.014491     0.026262     0.006309    -0.002557     0.025711    -0.006669     0.113857    -0.031197    -0.017095     0.048292
   14 Pt     5.610599     3.239284     2.290536     0.013097    -0.008428     0.004928    -0.028450     0.030079    -0.003326    -0.006734     0.006733     0.007027     0.063373    -0.015881    -0.008172     0.024053
   15 Pt     4.207946     0.809819     2.290536     0.052872    -0.021376    -0.010660    -0.014342     0.027861     0.002630    -0.024187    -0.016292    -0.007634     0.092515    -0.029928    -0.015259     0.045187
   16 Pt     9.818553     5.668741     2.290536     0.056982    -0.001542     0.008707    -0.014184     0.016714    -0.001766    -0.001893     0.009345    -0.003388     0.081994    -0.016254    -0.013297     0.029551
   17 Pt     8.415904     3.239284     2.290536     0.032745     0.007980    -0.013594    -0.021742     0.026855    -0.000016     0.008447    -0.015894     0.004002     0.085248    -0.022045    -0.012833     0.034878
   18 Pt     7.013251     0.809819     2.290536     0.052101     0.016355    -0.005331    -0.010718     0.020268     0.000282     0.015191    -0.009991    -0.004325     0.095961    -0.023478    -0.014516     0.037994
   19 Pt     5.610599     6.478561     4.581048    -0.162146    -0.005193     0.024215    -0.038937     0.046146     0.012339    -0.020234    -0.027501     0.008448    -0.352630    -0.123598     0.046279     0.077319
   20 Pt     4.207950     4.049103     4.581048     0.012947     0.021490     0.004951     0.138186     0.139934    -0.005001     0.020251    -0.007111     0.002512     0.240912    -0.045841    -0.038298     0.084139
   21 Pt     2.805297     1.619638     4.581048    -0.109326    -0.000080    -0.016335     0.052810     0.055279    -0.007514     0.032865     0.037605    -0.012047    -0.004420    -0.054095     0.007199     0.046895
   22 Pt     8.415904     6.478561     4.581048    -0.085020     0.003981     0.012891     0.082076     0.083177    -0.007819     0.051840    -0.013759     0.000556     0.094158    -0.048917    -0.018924     0.067841
   23 Pt     7.013256     4.049103     4.581048     0.008542     0.016539     0.017906    -0.114389     0.116958     0.001507    -0.003357    -0.026194     0.005185    -0.130134    -0.052997     0.023168     0.029829
   24 Pt     5.610603     1.619638     4.581048     0.025699    -0.017416    -0.036494    -0.080419     0.090012     0.010051     0.020288     0.006936    -0.020718    -0.086002    -0.038445     0.005960     0.032485
   25 Pt    11.221201     6.478561     4.581048    -0.055514    -0.006535     0.002934     0.095101     0.095370    -0.006465    -0.038356    -0.022301     0.022155     0.174520    -0.053537    -0.023446     0.076983
   26 Pt     9.818553     4.049103     4.581048     0.065778    -0.006914    -0.002770     0.140201     0.140399    -0.003447    -0.008832     0.017551    -0.019044     0.321719    -0.063955    -0.045779     0.109735
   27 Pt     8.415900     1.619638     4.581048    -0.163882    -0.006783     0.014949    -0.081025     0.082671    -0.016763    -0.057609     0.065405     0.012957    -0.466036    -0.182864     0.060786     0.122078
   28 C      7.883001     3.887819     7.474584    -0.008946     0.098025    -0.035715    -0.062653     0.121696     0.009109    -0.037149     0.012184     0.080012    -0.107301    -0.055120    -0.015946     0.071066
   29 C      6.638395     3.574323     6.605640     0.145661    -0.067806     0.035149     0.042712     0.087507    -0.041576    -0.023126     0.000993     0.058641     0.032500    -0.057773     0.002263     0.055510
   30 C      6.066492     2.144635     6.624768     0.067916     0.059993    -0.069246     0.038956     0.099558    -0.031617    -0.001902    -0.008317    -0.018892     0.122184    -0.053810     0.011605     0.042205
   31 O      9.193369     3.544004     7.004496    -0.360007    -0.112274     0.051602     0.002818     0.123597    -0.058832    -0.085742     0.006153     0.003326    -0.185905    -0.117174    -0.000032     0.117207
   32 O      5.582258     4.380156     7.103256    -0.403162     0.050649    -0.058179    -0.027224     0.081800    -0.083238    -0.026813     0.017356    -0.089762    -0.210506    -0.082649    -0.051047     0.133696
   33 O      6.836122     1.173699     7.255584    -0.378618    -0.063465     0.073212    -0.042787     0.105918    -0.121070    -0.009141    -0.031832     0.056063    -0.152547    -0.113859    -0.036648     0.150507
   34 H      7.718634     3.402172     8.453856     0.105446    -0.008962    -0.026367     0.042879     0.051129     0.000061    -0.000695    -0.009470     0.022993     0.007311    -0.017269     0.006864     0.010405
   35 H      5.072154     2.153920     7.095192     0.111273    -0.053252    -0.000305     0.037904     0.065365    -0.001325    -0.008120    -0.009047     0.004394    -0.000487    -0.013141     0.001584     0.011557
   36 H      7.905059     4.978437     7.607016     0.100569     0.012060     0.051098     0.004613     0.052705     0.002966     0.000422     0.010457     0.001451    -0.038141    -0.017480     0.005436     0.012044
   37 H      7.620421     0.975491     6.672024     0.279465     0.018722    -0.015925    -0.003168     0.024782    -0.012161     0.014726    -0.013037    -0.012564    -0.013964    -0.019075    -0.008281     0.027357
   38 H      9.249954     2.570517     6.876144     0.311474     0.008993    -0.032003     0.004056     0.033490    -0.006323    -0.002882    -0.015795     0.003973    -0.022537    -0.020754     0.005795     0.014959
   39 H      5.740456     5.312609     6.815328     0.318016    -0.004574     0.032034     0.002185     0.032432    -0.007780    -0.008934     0.012973    -0.003293    -0.020364    -0.015954    -0.004474     0.020428
 
The sperically averaged electron density of each atom fit to a function of the form exp(a - br) for r >=rmin_cloud_penetration
atom number,atomic symbol, x, y, z, a, b, Rsquared where a and b are in atomic units and Rsquared is the squared correlation coefficient
    1 Pt     0.000000     0.000000     0.000000     0.621077     1.732928     0.999923
    2 Pt     2.805301     4.858922     0.000000     0.618375     1.731271     0.999934
    3 Pt     1.402649     2.429458     0.000000     0.613258     1.731615     0.999929
    4 Pt     2.805297     0.000000     0.000000     0.622146     1.732001     0.999930
    5 Pt     5.610599     4.858922     0.000000     0.611336     1.731676     0.999930
    6 Pt     4.207946     2.429458     0.000000     0.611949     1.731819     0.999931
    7 Pt     5.610603     0.000000     0.000000     0.607826     1.731589     0.999929
    8 Pt     8.415904     4.858922     0.000000     0.611188     1.731088     0.999935
    9 Pt     7.013251     2.429458     0.000000     0.602227     1.731617     0.999927
   10 Pt     4.207950     5.668741     2.290536     0.653298     1.752352     0.999997
   11 Pt     2.805301     3.239284     2.290536     0.673744     1.755245     0.999995
   12 Pt     1.402649     0.809819     2.290536     0.629578     1.750137     0.999997
   13 Pt     7.013247     5.668741     2.290536     0.652034     1.751575     0.999998
   14 Pt     5.610599     3.239284     2.290536     0.672205     1.752764     0.999996
   15 Pt     4.207946     0.809819     2.290536     0.654416     1.751475     0.999998
   16 Pt     9.818553     5.668741     2.290536     0.677897     1.755786     0.999995
   17 Pt     8.415904     3.239284     2.290536     0.668109     1.752449     0.999997
   18 Pt     7.013251     0.809819     2.290536     0.650363     1.751165     0.999997
   19 Pt     5.610599     6.478561     4.581048     0.950796     1.786434     0.999987
   20 Pt     4.207950     4.049103     4.581048     0.743515     1.776099     0.999987
   21 Pt     2.805297     1.619638     4.581048     0.932759     1.788483     0.999986
   22 Pt     8.415904     6.478561     4.581048     0.850015     1.780071     0.999952
   23 Pt     7.013256     4.049103     4.581048     0.623938     1.761859     0.999947
   24 Pt     5.610603     1.619638     4.581048     0.664036     1.769328     0.999968
   25 Pt    11.221201     6.478561     4.581048     0.808862     1.777898     0.999982
   26 Pt     9.818553     4.049103     4.581048     0.672934     1.772855     0.999965
   27 Pt     8.415900     1.619638     4.581048     0.842887     1.775129     0.999969
   28 C      7.883001     3.887819     7.474584    -0.809230     1.831161     0.999204
   29 C      6.638395     3.574323     6.605640    -0.491804     1.840191     0.999494
   30 C      6.066492     2.144635     6.624768    -0.510077     1.852022     0.999849
   31 O      9.193369     3.544004     7.004496    -1.075854     1.804750     0.999903
   32 O      5.582258     4.380156     7.103256    -1.206376     1.784498     0.999878
   33 O      6.836122     1.173699     7.255584    -1.422055     1.775015     0.999469
   34 H      7.718634     3.402172     8.453856    -3.457206     1.755131     0.989301
   35 H      5.072154     2.153920     7.095192    -2.781463     1.753952     0.999882
   36 H      7.905059     4.978437     7.607016    -2.522250     1.845164     0.998694
   37 H      7.620421     0.975491     6.672024    -2.160520     1.886815     0.999582
   38 H      9.249954     2.570517     6.876144    -2.224194     1.889836     0.999563
   39 H      5.740456     5.312609     6.815328    -2.373762     1.864348     0.999394
 
 2020/04/29  15:04:51
