   38
jmolscript: load "" {1 1 1} spacegroup "x,y,z" unitcell [{      8.415900     0.000000     0.000000 }, {      4.207950     7.288380     0.000000 }, {      0.000000     0.000000    24.000000 }]
Pt     0.000000     0.000000     0.000000    -0.041415
Pt     2.805301     4.858922     0.000000    -0.041386
Pt     1.402649     2.429458     0.000000    -0.039300
Pt     2.805297     0.000000     0.000000    -0.040579
Pt     5.610599     4.858922     0.000000    -0.024745
Pt     4.207946     2.429458     0.000000    -0.040375
Pt     5.610603     0.000000     0.000000    -0.038732
Pt     8.415904     4.858922     0.000000    -0.041148
Pt     7.013251     2.429458     0.000000    -0.026843
Pt     4.207950     5.668742     2.290536     0.063511
Pt     2.805301     3.239284     2.290536     0.052838
Pt     1.402649     0.809819     2.290536     0.092140
Pt     7.013247     5.668742     2.290536     0.056117
Pt     5.610599     3.239284     2.290536    -0.003560
Pt     4.207946     0.809819     2.290536     0.056511
Pt     9.818553     5.668742     2.290536     0.070283
Pt     8.415904     3.239284     2.290536     0.043191
Pt     7.013251     0.809819     2.290536     0.056171
Pt     5.610603     6.478568     4.581048    -0.193604
Pt     4.207950     4.049103     4.581048     0.065014
Pt     2.805297     1.619638     4.581048    -0.105563
Pt     8.415900     6.478568     4.581048    -0.051944
Pt     7.013247     4.049103     4.581048    -0.004988
Pt     5.610603     1.619638     4.581048     0.071709
Pt    11.221206     6.478568     4.581048    -0.097208
Pt     9.818553     4.049103     4.581048     0.000090
Pt     8.415900     1.619638     4.581048    -0.099237
C      5.689872     3.887753     7.395240     0.107115
C      5.228243     2.444450     7.693392     0.023226
C      7.019016     3.885720     6.574560     0.188216
O      8.024455     3.651209     7.229352    -0.306291
O      4.575241     4.566236     6.813096    -0.341322
O      5.814608     1.410425     6.879432    -0.349874
H      4.150861     2.387316     7.477992     0.115311
H      5.417744     2.197680     8.748840     0.093124
H      5.941360     4.397641     8.340144     0.091193
H      6.790339     1.382132     6.998496     0.347188
H      4.852945     5.493864     6.543792     0.295168
 
 Chargemol version 3.5 September 26, 2017.
See ddec.sourceforge.net for latest version.
 
Computational parameters:
Number of radial integration shells =    100
Cutoff radius (pm) =    500
Error in the integrated total number of electrons before renormalization (e) =    4.9059E-05
Charge convergence tolerance =    1.0000E-05
Minimum radius for electron cloud penetration fitting (pm) =    200
Minimum decay exponent for electron density of buried atom tails =   1.7500
Maximum decay exponent for electron density of buried atom tails =  2.5000
Number of iterations to convergence =      7
 
The following XYZ coordinates are in angstroms. The atomic dipoles and quadrupoles are in atomic units.
atom number, atomic symbol, x, y, z, net_charge, dipole_x, dipole_y, dipole_z, dipole_mag, Qxy, Qxz, Qyz,Q(x^2-y^2), Q(3z^2 - R^2), three eigenvalues of traceless quadrupole moment tensor
    1 Pt     0.000000     0.000000     0.000000    -0.041415     0.000030    -0.000532    -0.116056     0.116058     0.002627    -0.004880    -0.000806     0.002888     0.169413    -0.031271    -0.025496     0.056767
    2 Pt     2.805301     4.858922     0.000000    -0.041386     0.000608    -0.002291    -0.100885     0.100913     0.000994     0.000810    -0.004152    -0.002810     0.120613    -0.021894    -0.018610     0.040505
    3 Pt     1.402649     2.429458     0.000000    -0.039300    -0.005760    -0.001669    -0.112822     0.112982     0.003179     0.015832     0.011071    -0.003782     0.151329    -0.030398    -0.024830     0.055227
    4 Pt     2.805297     0.000000     0.000000    -0.040579    -0.000538    -0.004143    -0.112706     0.112783     0.000057     0.008889     0.012362     0.010556     0.147597    -0.031907    -0.020262     0.052169
    5 Pt     5.610599     4.858922     0.000000    -0.024745    -0.004714     0.001704    -0.107299     0.107416     0.000274     0.006375    -0.016405    -0.002281     0.209503    -0.037609    -0.035121     0.072730
    6 Pt     4.207946     2.429458     0.000000    -0.040375     0.005369     0.001617    -0.089958     0.090132    -0.004163    -0.004516     0.000928    -0.003429     0.115149    -0.023865    -0.014887     0.038753
    7 Pt     5.610603     0.000000     0.000000    -0.038732    -0.002025     0.002487    -0.100775     0.100826    -0.001130     0.000639     0.001905     0.003234     0.130787    -0.023831    -0.019825     0.043655
    8 Pt     8.415904     4.858922     0.000000    -0.041148     0.002987     0.000463    -0.100876     0.100921     0.000010    -0.005362    -0.004880    -0.001777     0.134328    -0.023768    -0.021781     0.045549
    9 Pt     7.013251     2.429458     0.000000    -0.026843    -0.000859    -0.003513    -0.099420     0.099486     0.000778    -0.008097     0.012282     0.001485     0.185994    -0.034287    -0.029959     0.064246
   10 Pt     4.207950     5.668742     2.290536     0.063511     0.000495     0.010460    -0.002387     0.010740    -0.002282     0.001806     0.018838    -0.009084     0.092696    -0.022004    -0.016144     0.038148
   11 Pt     2.805301     3.239284     2.290536     0.052838    -0.009879    -0.010349    -0.021815     0.026088     0.004020    -0.010053    -0.008968     0.013793     0.062183    -0.019494    -0.007059     0.026553
   12 Pt     1.402649     0.809819     2.290536     0.092140     0.000583    -0.001007     0.021577     0.021609     0.001785     0.004957    -0.001652     0.001393     0.131609    -0.024115    -0.020164     0.044279
   13 Pt     7.013247     5.668742     2.290536     0.056117    -0.001607     0.019953    -0.011519     0.023095     0.003748    -0.003072     0.023720    -0.007399     0.117858    -0.028686    -0.019424     0.048110
   14 Pt     5.610599     3.239284     2.290536    -0.003560    -0.006545    -0.001090    -0.051655     0.052079    -0.000763    -0.000362     0.000110    -0.000559     0.035556    -0.006741    -0.005119     0.011860
   15 Pt     4.207946     0.809819     2.290536     0.056511    -0.012252    -0.003363    -0.013572     0.018591     0.005625    -0.015510    -0.008769    -0.001341     0.072932    -0.019364    -0.012936     0.032301
   16 Pt     9.818553     5.668742     2.290536     0.070283     0.001317     0.001968    -0.006718     0.007123    -0.000316     0.001543     0.003563    -0.003062     0.092501    -0.017061    -0.014102     0.031163
   17 Pt     8.415904     3.239284     2.290536     0.043191     0.013961    -0.009740    -0.022360     0.028102     0.000342     0.012880    -0.008288     0.012758     0.097060    -0.024203    -0.012820     0.037023
   18 Pt     7.013251     0.809819     2.290536     0.056171     0.009207    -0.006493    -0.010230     0.015217    -0.005138     0.013125    -0.012542    -0.001652     0.076394    -0.018199    -0.015284     0.033484
   19 Pt     5.610603     6.478568     4.581048    -0.193604     0.028393     0.035284    -0.074359     0.087065     0.003056     0.035596    -0.013070    -0.013860    -0.470653    -0.163024     0.076812     0.086212
   20 Pt     4.207950     4.049103     4.581048     0.065014    -0.004532     0.026356     0.100908     0.104391    -0.002717     0.010777     0.020814     0.005847     0.362525    -0.067309    -0.056454     0.123763
   21 Pt     2.805297     1.619638     4.581048    -0.105563    -0.021693    -0.022820     0.056401     0.064594    -0.010457     0.017974     0.012947     0.002406    -0.026635    -0.029431     0.011401     0.018030
   22 Pt     8.415900     6.478568     4.581048    -0.051944    -0.000163     0.008269     0.104582     0.104909     0.004897     0.037759    -0.004205     0.000246     0.110914    -0.039399    -0.016748     0.056147
   23 Pt     7.013247     4.049103     4.581048    -0.004988     0.028687     0.019532    -0.165604     0.169201    -0.012276     0.028434    -0.010044     0.021720    -0.023084    -0.027175    -0.012269     0.039444
   24 Pt     5.610603     1.619638     4.581048     0.071709    -0.007786    -0.032741     0.100515     0.105999     0.007575    -0.019300    -0.021539    -0.018937     0.350484    -0.071309    -0.050405     0.121714
   25 Pt    11.221206     6.478568     4.581048    -0.097208    -0.010922    -0.006347     0.052350     0.053853    -0.017839    -0.050187    -0.035670     0.011538     0.021978    -0.069527     0.011154     0.058372
   26 Pt     9.818553     4.049103     4.581048     0.000090    -0.023622    -0.008291     0.140867     0.143074     0.006392    -0.029128     0.004738     0.006446     0.226076    -0.048695    -0.033987     0.082682
   27 Pt     8.415900     1.619638     4.581048    -0.099237     0.035885     0.019512     0.032815     0.052395    -0.009869     0.013751     0.083296    -0.026718    -0.164833    -0.105509     0.016448     0.089061
   28 C      5.689872     3.887753     7.395240     0.107115    -0.085826     0.013952    -0.056326     0.103602    -0.018077     0.029276    -0.001308     0.021309    -0.063325    -0.037552    -0.005216     0.042768
   29 C      5.228243     2.444450     7.693392     0.023226     0.059734    -0.046652    -0.088717     0.116685    -0.038064    -0.018586     0.037750    -0.055244    -0.020988    -0.043552    -0.029180     0.072731
   30 C      7.019016     3.885720     6.574560     0.188216     0.037305     0.010510     0.036731     0.053398     0.037469    -0.025645     0.044663    -0.196449    -0.281994    -0.118185    -0.040182     0.158367
   31 O      8.024455     3.651209     7.229352    -0.306291    -0.025430     0.026279    -0.049547     0.061581     0.017794     0.027414     0.010589    -0.087172    -0.189974    -0.075250    -0.005278     0.080528
   32 O      4.575241     4.566236     6.813096    -0.341322     0.076769    -0.065750    -0.006394     0.101279    -0.044689     0.078371    -0.020373    -0.043625    -0.032053    -0.094985    -0.000974     0.095959
   33 O      5.814608     1.410425     6.879432    -0.349874    -0.066338     0.102792     0.009254     0.122689    -0.069319    -0.000833     0.068443     0.070006     0.072431    -0.115113     0.022710     0.092404
   34 H      4.150861     2.387316     7.477992     0.115311    -0.050845    -0.001695    -0.015778     0.053264    -0.004668    -0.006442     0.008454     0.007477    -0.037185    -0.016850     0.001283     0.015567
   35 H      5.417744     2.197680     8.748840     0.093124     0.011822    -0.017425     0.045905     0.050504    -0.008764     0.002002    -0.002543    -0.012788     0.018655    -0.013978     0.003729     0.010249
   36 H      5.941360     4.397641     8.340144     0.091193     0.013260     0.033046     0.047083     0.059031    -0.000491     0.000727     0.009144    -0.002219     0.000912    -0.008621    -0.001162     0.009783
   37 H      6.790339     1.382132     6.998496     0.347188     0.038058    -0.005656     0.010950     0.040004    -0.006449     0.013432     0.000827     0.012438     0.007579    -0.013930    -0.004017     0.017948
   38 H      4.852945     5.493864     6.543792     0.295168     0.003389     0.024471     0.004191     0.025057    -0.001943     0.009808     0.013321     0.008076    -0.000207    -0.018426     0.002962     0.015465
 
The sperically averaged electron density of each atom fit to a function of the form exp(a - br) for r >=rmin_cloud_penetration
atom number,atomic symbol, x, y, z, a, b, Rsquared where a and b are in atomic units and Rsquared is the squared correlation coefficient
    1 Pt     0.000000     0.000000     0.000000     0.602084     1.729230     0.999906
    2 Pt     2.805301     4.858922     0.000000     0.604546     1.727530     0.999923
    3 Pt     1.402649     2.429458     0.000000     0.600192     1.727621     0.999922
    4 Pt     2.805297     0.000000     0.000000     0.599912     1.727975     0.999918
    5 Pt     5.610599     4.858922     0.000000     0.589842     1.727446     0.999920
    6 Pt     4.207946     2.429458     0.000000     0.608568     1.727188     0.999928
    7 Pt     5.610603     0.000000     0.000000     0.601369     1.727303     0.999924
    8 Pt     8.415904     4.858922     0.000000     0.602898     1.727573     0.999924
    9 Pt     7.013251     2.429458     0.000000     0.592463     1.727252     0.999921
   10 Pt     4.207950     5.668742     2.290536     0.650618     1.751296     0.999996
   11 Pt     2.805301     3.239284     2.290536     0.669439     1.754616     0.999996
   12 Pt     1.402649     0.809819     2.290536     0.625594     1.749410     0.999997
   13 Pt     7.013247     5.668742     2.290536     0.654623     1.751654     0.999998
   14 Pt     5.610599     3.239284     2.290536     0.688450     1.753680     0.999997
   15 Pt     4.207946     0.809819     2.290536     0.660305     1.753061     0.999996
   16 Pt     9.818553     5.668742     2.290536     0.667183     1.754916     0.999994
   17 Pt     8.415904     3.239284     2.290536     0.657553     1.751635     0.999997
   18 Pt     7.013251     0.809819     2.290536     0.657194     1.752174     0.999996
   19 Pt     5.610603     6.478568     4.581048     0.943334     1.780344     0.999988
   20 Pt     4.207950     4.049103     4.581048     0.633403     1.766347     0.999985
   21 Pt     2.805297     1.619638     4.581048     0.873766     1.777788     0.999965
   22 Pt     8.415900     6.478568     4.581048     0.783035     1.769169     0.999991
   23 Pt     7.013247     4.049103     4.581048     0.587547     1.757104     0.999971
   24 Pt     5.610603     1.619638     4.581048     0.596735     1.761852     0.999973
   25 Pt    11.221206     6.478568     4.581048     0.850658     1.779609     0.999986
   26 Pt     9.818553     4.049103     4.581048     0.739217     1.769857     0.999983
   27 Pt     8.415900     1.619638     4.581048     0.879805     1.778391     0.999979
   28 C      5.689872     3.887753     7.395240    -0.684164     1.865974     0.999474
   29 C      5.228243     2.444450     7.693392    -1.001221     1.817958     0.999306
   30 C      7.019016     3.885720     6.574560    -0.549326     1.835967     0.999888
   31 O      8.024455     3.651209     7.229352    -1.311467     1.787060     0.999872
   32 O      4.575241     4.566236     6.813096    -1.052609     1.791748     0.999962
   33 O      5.814608     1.410425     6.879432    -1.047753     1.791011     0.999973
   34 H      4.150861     2.387316     7.477992    -2.480057     1.832707     0.999428
   35 H      5.417744     2.197680     8.748840    -4.048622     1.695113     0.990990
   36 H      5.941360     4.397641     8.340144    -3.092404     1.783315     0.997779
   37 H      6.790339     1.382132     6.998496    -2.494290     1.846816     0.999865
   38 H      4.852945     5.493864     6.543792    -2.084072     1.878801     0.999732
 
 2020/06/28  19:25:53
