   35
jmolscript: load "" {1 1 1} spacegroup "x,y,z" unitcell [{      8.415900     0.000000     0.000000 }, {      4.207950     7.288380     0.000000 }, {      0.000000     0.000000    24.000000 }]
Pt     0.000000     0.000000     0.000000    -0.043405
Pt     2.805301     4.858922     0.000000    -0.043988
Pt     1.402649     2.429458     0.000000    -0.043617
Pt     2.805297     0.000000     0.000000    -0.035938
Pt     5.610599     4.858922     0.000000    -0.034099
Pt     4.207946     2.429458     0.000000    -0.045869
Pt     5.610603     0.000000     0.000000    -0.039908
Pt     8.415904     4.858922     0.000000    -0.030478
Pt     7.013251     2.429458     0.000000    -0.027297
Pt     4.207950     5.668742     2.290536     0.086859
Pt     2.805301     3.239284     2.290536     0.081761
Pt     1.402649     0.809819     2.290536     0.068637
Pt     7.013247     5.668742     2.290536     0.050726
Pt     5.610599     3.239284     2.290536     0.042606
Pt     4.207946     0.809819     2.290536     0.085837
Pt     9.818553     5.668742     2.290536     0.086339
Pt     8.415904     3.239284     2.290536     0.020490
Pt     7.013251     0.809819     2.290536     0.063972
Pt     5.610603     6.478568     4.581048    -0.174435
Pt     4.207950     4.049103     4.581048    -0.076094
Pt     2.805297     1.619638     4.581048    -0.072618
Pt     8.415900     6.478568     4.581048    -0.099104
Pt     7.013247     4.049103     4.581048     0.018076
Pt     5.610603     1.619638     4.581048    -0.132659
Pt    11.221206     6.478568     4.581048    -0.129581
Pt     9.818553     4.049103     4.581048    -0.080308
Pt     8.415900     1.619638     4.581048     0.063069
C      6.997421     4.029840     6.510360     0.226082
C      7.105961     2.831689     7.435032    -0.004425
O      6.756554     5.099592     7.230576    -0.293678
O      7.912065     1.742710     6.990720    -0.349187
H      6.055615     2.508012     7.567608     0.113435
H      7.499320     3.176342     8.405760     0.124008
H      7.329294     0.973443     6.788856     0.318751
H      6.541229     5.868101     6.596304     0.306040
 
 Chargemol version 3.5 September 26, 2017.
See ddec.sourceforge.net for latest version.
 
Computational parameters:
Number of radial integration shells =    100
Cutoff radius (pm) =    500
Error in the integrated total number of electrons before renormalization (e) =    3.1044E-05
Charge convergence tolerance =    1.0000E-05
Minimum radius for electron cloud penetration fitting (pm) =    200
Minimum decay exponent for electron density of buried atom tails =   1.7500
Maximum decay exponent for electron density of buried atom tails =  2.5000
Number of iterations to convergence =      7
 
The following XYZ coordinates are in angstroms. The atomic dipoles and quadrupoles are in atomic units.
atom number, atomic symbol, x, y, z, net_charge, dipole_x, dipole_y, dipole_z, dipole_mag, Qxy, Qxz, Qyz,Q(x^2-y^2), Q(3z^2 - R^2), three eigenvalues of traceless quadrupole moment tensor
    1 Pt     0.000000     0.000000     0.000000    -0.043405    -0.001836     0.003102    -0.110969     0.111028     0.003494     0.002840     0.001779    -0.000142     0.128310    -0.024889    -0.018065     0.042954
    2 Pt     2.805301     4.858922     0.000000    -0.043988     0.002515    -0.000025    -0.109677     0.109705     0.000031    -0.003998    -0.004603    -0.007458     0.104983    -0.021521    -0.014183     0.035704
    3 Pt     1.402649     2.429458     0.000000    -0.043617    -0.002854    -0.001446    -0.101617     0.101668     0.004770     0.003791     0.001100    -0.002067     0.092190    -0.020348    -0.010733     0.031081
    4 Pt     2.805297     0.000000     0.000000    -0.035938     0.004828    -0.001419    -0.118907     0.119014    -0.000510    -0.011594     0.008620     0.008662     0.167093    -0.033064    -0.025115     0.058179
    5 Pt     5.610599     4.858922     0.000000    -0.034099    -0.002327    -0.001256    -0.108346     0.108378    -0.001298     0.009975    -0.006630     0.002252     0.158734    -0.028260    -0.026455     0.054715
    6 Pt     4.207946     2.429458     0.000000    -0.045869    -0.000677     0.002621    -0.110593     0.110626    -0.002687    -0.002070    -0.002839    -0.005038     0.113673    -0.022780    -0.015321     0.038101
    7 Pt     5.610603     0.000000     0.000000    -0.039908     0.000504    -0.000917    -0.113109     0.113114    -0.003066     0.002299     0.005214     0.007875     0.146106    -0.029753    -0.019364     0.049116
    8 Pt     8.415904     4.858922     0.000000    -0.030478     0.001326     0.000907    -0.108780     0.108792    -0.000226    -0.008547    -0.012498     0.000351     0.189370    -0.034194    -0.031285     0.065479
    9 Pt     7.013251     2.429458     0.000000    -0.027297     0.002279    -0.001582    -0.104276     0.104313    -0.001655    -0.000074     0.008731    -0.003228     0.179896    -0.032434    -0.028386     0.060821
   10 Pt     4.207950     5.668742     2.290536     0.086859     0.002136     0.002444     0.010037     0.010549     0.003012    -0.000425     0.001531    -0.004708     0.128103    -0.025190    -0.017551     0.042741
   11 Pt     2.805301     3.239284     2.290536     0.081761    -0.002528     0.000469     0.006839     0.007306    -0.000173     0.001760     0.003446     0.015786     0.105625    -0.025697    -0.009774     0.035471
   12 Pt     1.402649     0.809819     2.290536     0.068637     0.009431    -0.008850    -0.004656     0.013745    -0.005022     0.009012    -0.010701    -0.005870     0.099996    -0.022639    -0.014728     0.037366
   13 Pt     7.013247     5.668742     2.290536     0.050726    -0.002310     0.026155    -0.011460     0.028649    -0.003788    -0.005421     0.023747    -0.003631     0.134451    -0.029145    -0.023903     0.053047
   14 Pt     5.610599     3.239284     2.290536     0.042606    -0.021912    -0.017012    -0.021664     0.035197     0.001207    -0.019553    -0.011834     0.000341     0.108105    -0.025399    -0.019142     0.044541
   15 Pt     4.207946     0.809819     2.290536     0.085837     0.003582     0.000960     0.016621     0.017030     0.006730     0.002553    -0.000742     0.000764     0.117334    -0.026377    -0.012850     0.039227
   16 Pt     9.818553     5.668742     2.290536     0.086339    -0.000134    -0.001471     0.011561     0.011655     0.000174     0.004675     0.002246    -0.008331     0.122298    -0.024882    -0.016306     0.041188
   17 Pt     8.415904     3.239284     2.290536     0.020490     0.023167    -0.004328    -0.034453     0.041742     0.001041     0.019098     0.004682     0.009452     0.089329    -0.020252    -0.017577     0.037829
   18 Pt     7.013251     0.809819     2.290536     0.063972    -0.009594    -0.003295    -0.004693     0.011177    -0.003581    -0.014823    -0.011247     0.002971     0.091065    -0.024936    -0.011739     0.036675
   19 Pt     5.610603     6.478568     4.581048    -0.174435    -0.043881     0.012545    -0.061417     0.076518     0.005676    -0.059985     0.015148    -0.031188    -0.331472    -0.132797     0.060662     0.072134
   20 Pt     4.207950     4.049103     4.581048    -0.076094    -0.008570     0.008754     0.058942     0.060202     0.000519     0.007014     0.011093     0.006233    -0.109400    -0.039504     0.016723     0.022781
   21 Pt     2.805297     1.619638     4.581048    -0.072618     0.002386     0.000697     0.072072     0.072114     0.000331    -0.034136     0.017040    -0.006038    -0.028975    -0.042150     0.006850     0.035299
   22 Pt     8.415900     6.478568     4.581048    -0.099104     0.017671     0.001709     0.034426     0.038734     0.003117     0.008587    -0.032239    -0.026463    -0.141858    -0.059411     0.011605     0.047806
   23 Pt     7.013247     4.049103     4.581048     0.018076    -0.002578     0.006751    -0.223995     0.224112     0.005609     0.009343    -0.021442     0.030392    -0.013123    -0.032678     0.011557     0.021121
   24 Pt     5.610603     1.619638     4.581048    -0.132659    -0.021592     0.006067    -0.001805     0.022501     0.021156     0.011260     0.038713    -0.018783    -0.244675    -0.092328     0.018654     0.073673
   25 Pt    11.221206     6.478568     4.581048    -0.129581    -0.000450    -0.037371    -0.003649     0.037551    -0.001313     0.016479    -0.033943     0.033836    -0.282057    -0.104153     0.037741     0.066411
   26 Pt     9.818553     4.049103     4.581048    -0.080308     0.013077     0.007487     0.078908     0.080334     0.001270    -0.017166    -0.022724     0.007172     0.010391    -0.027903    -0.001878     0.029781
   27 Pt     8.415900     1.619638     4.581048     0.063069     0.013718     0.005178     0.105761     0.106772    -0.015558     0.013642     0.031068    -0.022972     0.208830    -0.059901    -0.019733     0.079633
   28 C      6.997421     4.029840     6.510360     0.226082     0.003703     0.042060     0.103534     0.111813     0.015508     0.011486     0.020289     0.188679    -0.327011    -0.114706    -0.036068     0.150773
   29 C      7.105961     2.831689     7.435032    -0.004425     0.098227    -0.069424    -0.064753     0.136606    -0.026860    -0.024356     0.023870     0.037810    -0.143376    -0.058970    -0.007214     0.066184
   30 O      6.756554     5.099592     7.230576    -0.293678     0.008109    -0.033596    -0.036062     0.049949    -0.021906    -0.009686     0.028429    -0.092889    -0.280985    -0.098311    -0.004414     0.102724
   31 O      7.912065     1.742710     6.990720    -0.349187    -0.056979     0.117036    -0.007733     0.130399    -0.017842    -0.060564     0.062974    -0.144919    -0.161386    -0.116373    -0.014035     0.130408
   32 H      6.055615     2.508012     7.567608     0.113435    -0.050858    -0.014142     0.006474     0.053183    -0.002391    -0.013045    -0.005027     0.000516    -0.039176    -0.020675     0.007420     0.013256
   33 H      7.499320     3.176342     8.405760     0.124008     0.027301     0.014770     0.039286     0.050068    -0.004146     0.007387     0.002531     0.000948     0.012550    -0.009875     0.000650     0.009225
   34 H      7.329294     0.973443     6.788856     0.318751    -0.015123    -0.031331     0.001720     0.034832     0.000184    -0.014359    -0.007964    -0.008749    -0.024091    -0.020431     0.005310     0.015121
   35 H      6.541229     5.868101     6.596304     0.306040    -0.005418     0.024276     0.004038     0.025199    -0.003309    -0.004607     0.019344    -0.009046    -0.006495    -0.018164    -0.004441     0.022606
 
The sperically averaged electron density of each atom fit to a function of the form exp(a - br) for r >=rmin_cloud_penetration
atom number,atomic symbol, x, y, z, a, b, Rsquared where a and b are in atomic units and Rsquared is the squared correlation coefficient
    1 Pt     0.000000     0.000000     0.000000     0.616030     1.730871     0.999922
    2 Pt     2.805301     4.858922     0.000000     0.611957     1.729943     0.999927
    3 Pt     1.402649     2.429458     0.000000     0.613363     1.729604     0.999930
    4 Pt     2.805297     0.000000     0.000000     0.605395     1.730014     0.999926
    5 Pt     5.610599     4.858922     0.000000     0.606547     1.730063     0.999927
    6 Pt     4.207946     2.429458     0.000000     0.617902     1.730258     0.999929
    7 Pt     5.610603     0.000000     0.000000     0.607171     1.730044     0.999923
    8 Pt     8.415904     4.858922     0.000000     0.601606     1.729654     0.999929
    9 Pt     7.013251     2.429458     0.000000     0.601860     1.729551     0.999930
   10 Pt     4.207950     5.668742     2.290536     0.639307     1.751088     0.999996
   11 Pt     2.805301     3.239284     2.290536     0.641821     1.751826     0.999995
   12 Pt     1.402649     0.809819     2.290536     0.646593     1.751811     0.999997
   13 Pt     7.013247     5.668742     2.290536     0.651629     1.751272     0.999998
   14 Pt     5.610599     3.239284     2.290536     0.653843     1.750963     0.999997
   15 Pt     4.207946     0.809819     2.290536     0.632274     1.750565     0.999995
   16 Pt     9.818553     5.668742     2.290536     0.640455     1.751454     0.999994
   17 Pt     8.415904     3.239284     2.290536     0.674198     1.752843     0.999998
   18 Pt     7.013251     0.809819     2.290536     0.652907     1.752087     0.999995
   19 Pt     5.610603     6.478568     4.581048     0.782973     1.757633     0.999961
   20 Pt     4.207950     4.049103     4.581048     0.767983     1.753020     0.999994
   21 Pt     2.805297     1.619638     4.581048     0.835309     1.764451     0.999991
   22 Pt     8.415900     6.478568     4.581048     0.850021     1.766057     0.999985
   23 Pt     7.013247     4.049103     4.581048     0.547499     1.753373     0.999971
   24 Pt     5.610603     1.619638     4.581048     0.825553     1.763722     0.999992
   25 Pt    11.221206     6.478568     4.581048     0.855017     1.763005     0.999977
   26 Pt     9.818553     4.049103     4.581048     0.737479     1.751410     0.999978
   27 Pt     8.415900     1.619638     4.581048     0.624334     1.759740     0.999975
   28 C      6.997421     4.029840     6.510360    -0.788419     1.796610     0.999456
   29 C      7.105961     2.831689     7.435032    -1.127662     1.783361     0.998920
   30 O      6.756554     5.099592     7.230576    -1.558954     1.737507     0.999828
   31 O      7.912065     1.742710     6.990720    -1.312746     1.754392     0.999766
   32 H      6.055615     2.508012     7.567608    -2.698665     1.776921     0.999346
   33 H      7.499320     3.176342     8.405760    -3.991136     1.680887     0.992837
   34 H      7.329294     0.973443     6.788856    -2.395477     1.836968     0.999493
   35 H      6.541229     5.868101     6.596304    -2.439648     1.816803     0.999924
 
 2020/06/24  17:06:13
