   34
jmolscript: load "" {1 1 1} spacegroup "x,y,z" unitcell [{      8.415900     0.000000     0.000000 }, {      4.207950     7.288380     0.000000 }, {      0.000000     0.000000    24.000000 }]
Pt     0.000000     0.000000     0.000000    -0.032517
Pt     2.805301     4.858922     0.000000    -0.029243
Pt     1.402649     2.429458     0.000000    -0.057943
Pt     2.805297     0.000000     0.000000    -0.028903
Pt     5.610599     4.858922     0.000000    -0.026384
Pt     4.207946     2.429458     0.000000    -0.028504
Pt     5.610603     0.000000     0.000000    -0.039274
Pt     8.415904     4.858922     0.000000    -0.029904
Pt     7.013251     2.429458     0.000000    -0.027465
Pt     4.207950     5.668742     2.290536     0.043234
Pt     2.805301     3.239284     2.290536     0.051194
Pt     1.402649     0.809819     2.290536     0.060102
Pt     7.013247     5.668742     2.290536     0.031907
Pt     5.610599     3.239284     2.290536     0.022801
Pt     4.207946     0.809819     2.290536     0.079691
Pt     9.818553     5.668742     2.290536     0.080453
Pt     8.415904     3.239284     2.290536     0.050211
Pt     7.013251     0.809819     2.290536     0.079776
Pt     5.610603     6.478568     4.581048    -0.020548
Pt     4.207950     4.049103     4.581048     0.015944
Pt     2.805297     1.619638     4.581048    -0.095777
Pt     8.415900     6.478568     4.581048    -0.104912
Pt     7.013247     4.049103     4.581048     0.042363
Pt     5.610603     1.619638     4.581048    -0.074264
Pt    11.221206     6.478568     4.581048    -0.140284
Pt     9.818553     4.049103     4.581048    -0.046792
Pt     8.415900     1.619638     4.581048    -0.066481
C      5.128271     5.084651     6.139176     0.108299
C      6.397616     4.402940     6.562488     0.069899
O      4.380598     5.520066     7.180344    -0.314257
O      7.270143     5.142185     7.332552    -0.346643
H      6.248852     3.421406     7.034664     0.117810
H      3.565047     5.950095     6.802296     0.327978
H      7.300983     6.059289     6.966576     0.328435
 
 Chargemol version 3.5 September 26, 2017.
See ddec.sourceforge.net for latest version.
 
Computational parameters:
Number of radial integration shells =    100
Cutoff radius (pm) =    500
Error in the integrated total number of electrons before renormalization (e) =    1.8187E-04
Charge convergence tolerance =    1.0000E-05
Minimum radius for electron cloud penetration fitting (pm) =    200
Minimum decay exponent for electron density of buried atom tails =   1.7500
Maximum decay exponent for electron density of buried atom tails =  2.5000
Number of iterations to convergence =      7
 
The following XYZ coordinates are in angstroms. The atomic dipoles and quadrupoles are in atomic units.
atom number, atomic symbol, x, y, z, net_charge, dipole_x, dipole_y, dipole_z, dipole_mag, Qxy, Qxz, Qyz,Q(x^2-y^2), Q(3z^2 - R^2), three eigenvalues of traceless quadrupole moment tensor
    1 Pt     0.000000     0.000000     0.000000    -0.032517     0.000675     0.000982    -0.119649     0.119655     0.001173     0.004481    -0.003134     0.004169     0.183421    -0.033151    -0.028313     0.061464
    2 Pt     2.805301     4.858922     0.000000    -0.029243    -0.000745    -0.000985    -0.115721     0.115727     0.000500     0.006670    -0.004850    -0.006946     0.181881    -0.034352    -0.027005     0.061357
    3 Pt     1.402649     2.429458     0.000000    -0.057943     0.001194     0.000047    -0.097355     0.097362     0.002100    -0.003174     0.002526    -0.001430     0.034208    -0.008735    -0.003485     0.012220
    4 Pt     2.805297     0.000000     0.000000    -0.028903    -0.000034    -0.001315    -0.114304     0.114312    -0.001290    -0.004281     0.000810     0.007498     0.182315    -0.034350    -0.026639     0.060989
    5 Pt     5.610599     4.858922     0.000000    -0.026384    -0.000378     0.000319    -0.110429     0.110430    -0.000741     0.003101    -0.005139    -0.002432     0.229275    -0.039661    -0.037081     0.076742
    6 Pt     4.207946     2.429458     0.000000    -0.028504     0.000960     0.000750    -0.112914     0.112921    -0.002491    -0.002100     0.005586     0.000875     0.192082    -0.034635    -0.029767     0.064402
    7 Pt     5.610603     0.000000     0.000000    -0.039274    -0.000202     0.000536    -0.119086     0.119088    -0.000433    -0.000587     0.000439     0.004101     0.171345    -0.030655    -0.026466     0.057121
    8 Pt     8.415904     4.858922     0.000000    -0.029904     0.000491     0.000356    -0.112135     0.112136     0.000704    -0.008557    -0.006358    -0.004428     0.182164    -0.033356    -0.028597     0.061954
    9 Pt     7.013251     2.429458     0.000000    -0.027465    -0.000736    -0.001079    -0.112391     0.112398     0.000786     0.000564     0.012314    -0.000643     0.183152    -0.032204    -0.030484     0.062688
   10 Pt     4.207950     5.668742     2.290536     0.043234    -0.003206     0.003240    -0.010994     0.011902    -0.003518    -0.011637     0.007505    -0.001864     0.104216    -0.021628    -0.016740     0.038368
   11 Pt     2.805301     3.239284     2.290536     0.051194    -0.020177    -0.010997    -0.022110     0.031889     0.005217    -0.022006    -0.013339     0.007198     0.076246    -0.020991    -0.018768     0.039759
   12 Pt     1.402649     0.809819     2.290536     0.060102    -0.000500     0.019771    -0.016627     0.025838     0.001745     0.001841     0.023213    -0.009352     0.087203    -0.021056    -0.018939     0.039995
   13 Pt     7.013247     5.668742     2.290536     0.031907     0.005361     0.008685    -0.021116     0.023453     0.004639     0.014676     0.015861     0.003623     0.082414    -0.020770    -0.016711     0.037481
   14 Pt     5.610599     3.239284     2.290536     0.022801    -0.003524    -0.008603    -0.023758     0.025512    -0.001542    -0.005134    -0.018289    -0.008192     0.070165    -0.019646    -0.012555     0.032201
   15 Pt     4.207946     0.809819     2.290536     0.079691    -0.000648    -0.000365     0.010482     0.010508     0.004159     0.002263    -0.004860    -0.004117     0.100260    -0.021722    -0.012249     0.033971
   16 Pt     9.818553     5.668742     2.290536     0.080453    -0.001211     0.000953     0.007153     0.007317    -0.001428     0.000470     0.006098     0.006306     0.111956    -0.022733    -0.015210     0.037943
   17 Pt     8.415904     3.239284     2.290536     0.050211     0.019696    -0.010948    -0.021338     0.031034    -0.003250     0.022135    -0.012167     0.008909     0.083768    -0.022613    -0.018184     0.040797
   18 Pt     7.013251     0.809819     2.290536     0.079776    -0.000678    -0.000122     0.006777     0.006811    -0.006601    -0.004820    -0.003614    -0.001402     0.105445    -0.024813    -0.010942     0.035755
   19 Pt     5.610603     6.478568     4.581048    -0.020548    -0.006496     0.048023    -0.086449     0.099105     0.005734    -0.035273    -0.039470    -0.050389    -0.211613    -0.091969     0.016699     0.075270
   20 Pt     4.207950     4.049103     4.581048     0.015944    -0.040855    -0.040538    -0.070490     0.091002     0.021071     0.026807     0.016806    -0.008033    -0.103517    -0.047291    -0.002371     0.049662
   21 Pt     2.805297     1.619638     4.581048    -0.095777    -0.004551     0.007073     0.087503     0.087906    -0.013197    -0.006307     0.025613     0.031254     0.068760    -0.040090     0.002645     0.037445
   22 Pt     8.415900     6.478568     4.581048    -0.104912     0.037997     0.001849     0.026231     0.046209     0.002091     0.034991    -0.032631    -0.030954    -0.138348    -0.071760     0.019572     0.052187
   23 Pt     7.013247     4.049103     4.581048     0.042363     0.013522    -0.001031    -0.077720     0.078894    -0.014374    -0.020085     0.025539     0.046583    -0.092900    -0.048489    -0.003334     0.051823
   24 Pt     5.610603     1.619638     4.581048    -0.074264    -0.004796    -0.020406     0.074276     0.077178    -0.000224     0.002585     0.021779    -0.000975     0.019973    -0.020576    -0.003748     0.024324
   25 Pt    11.221206     6.478568     4.581048    -0.140284    -0.010883     0.014044    -0.038414     0.042324    -0.012570    -0.000351     0.002575     0.025357    -0.397100    -0.132402     0.048358     0.084044
   26 Pt     9.818553     4.049103     4.581048    -0.046792    -0.005811    -0.005175     0.114893     0.115156    -0.006764    -0.025994    -0.002982    -0.031126     0.192318    -0.054742    -0.015140     0.069882
   27 Pt     8.415900     1.619638     4.581048    -0.066481     0.008537    -0.000380     0.096290     0.096669     0.012292    -0.000222     0.022276     0.016767     0.141849    -0.043013    -0.010223     0.053237
   28 C      5.128271     5.084651     6.139176     0.108299    -0.034749     0.018360     0.091677     0.099746     0.033100    -0.016132    -0.001096    -0.048371     0.032118    -0.049590     0.011243     0.038346
   29 C      6.397616     4.402940     6.562488     0.069899     0.066335     0.052869     0.062902     0.105603     0.009297    -0.011600     0.001941     0.036432     0.115591    -0.039996    -0.001688     0.041684
   30 O      4.380598     5.520066     7.180344    -0.314257     0.049688    -0.032852    -0.046723     0.075705    -0.074617    -0.052548     0.026791     0.088828    -0.108969    -0.069228    -0.057117     0.126345
   31 O      7.270143     5.142185     7.332552    -0.346643    -0.083338    -0.059160    -0.053215     0.115225     0.085517     0.038151     0.029283    -0.128801    -0.158861    -0.094070    -0.049090     0.143159
   32 H      6.248852     3.421406     7.034664     0.117810    -0.006489    -0.053948     0.037487     0.066013     0.002334     0.006793    -0.008905     0.000049     0.001197    -0.012334     0.002053     0.010280
   33 H      3.565047     5.950095     6.802296     0.327978    -0.029160     0.014686     0.006151     0.033224    -0.006982    -0.018318     0.008947     0.011197     0.018002    -0.014415    -0.011946     0.026360
   34 H      7.300983     6.059289     6.966576     0.328435     0.005288     0.034829     0.002351     0.035306     0.010018     0.008400     0.016580    -0.009976    -0.016147    -0.016845    -0.008299     0.025144
 
The sperically averaged electron density of each atom fit to a function of the form exp(a - br) for r >=rmin_cloud_penetration
atom number,atomic symbol, x, y, z, a, b, Rsquared where a and b are in atomic units and Rsquared is the squared correlation coefficient
    1 Pt     0.000000     0.000000     0.000000     0.622083     1.735013     0.999929
    2 Pt     2.805301     4.858922     0.000000     0.615671     1.733916     0.999934
    3 Pt     1.402649     2.429458     0.000000     0.637800     1.733638     0.999939
    4 Pt     2.805297     0.000000     0.000000     0.615765     1.733845     0.999934
    5 Pt     5.610599     4.858922     0.000000     0.617104     1.734091     0.999934
    6 Pt     4.207946     2.429458     0.000000     0.620087     1.734310     0.999934
    7 Pt     5.610603     0.000000     0.000000     0.621476     1.734331     0.999930
    8 Pt     8.415904     4.858922     0.000000     0.617039     1.733774     0.999937
    9 Pt     7.013251     2.429458     0.000000     0.615810     1.733837     0.999934
   10 Pt     4.207950     5.668742     2.290536     0.655104     1.751760     0.999996
   11 Pt     2.805301     3.239284     2.290536     0.657789     1.751985     0.999998
   12 Pt     1.402649     0.809819     2.290536     0.650611     1.751205     0.999998
   13 Pt     7.013247     5.668742     2.290536     0.662911     1.752309     0.999996
   14 Pt     5.610599     3.239284     2.290536     0.668112     1.752645     0.999996
   15 Pt     4.207946     0.809819     2.290536     0.646947     1.751981     0.999995
   16 Pt     9.818553     5.668742     2.290536     0.648523     1.752137     0.999996
   17 Pt     8.415904     3.239284     2.290536     0.663631     1.753106     0.999998
   18 Pt     7.013251     0.809819     2.290536     0.645801     1.751709     0.999996
   19 Pt     5.610603     6.478568     4.581048     0.714598     1.767157     0.999979
   20 Pt     4.207950     4.049103     4.581048     0.647937     1.760699     0.999985
   21 Pt     2.805297     1.619638     4.581048     0.846311     1.766518     0.999986
   22 Pt     8.415900     6.478568     4.581048     0.882228     1.779360     0.999985
   23 Pt     7.013247     4.049103     4.581048     0.652805     1.765592     0.999976
   24 Pt     5.610603     1.619638     4.581048     0.893609     1.782591     0.999965
   25 Pt    11.221206     6.478568     4.581048     0.879914     1.777268     0.999985
   26 Pt     9.818553     4.049103     4.581048     0.794086     1.768151     0.999986
   27 Pt     8.415900     1.619638     4.581048     0.818874     1.768990     0.999989
   28 C      5.128271     5.084651     6.139176    -0.398799     1.846928     0.999468
   29 C      6.397616     4.402940     6.562488    -0.649893     1.831674     0.999672
   30 O      4.380598     5.520066     7.180344    -1.530124     1.753996     0.999789
   31 O      7.270143     5.142185     7.332552    -1.606935     1.756944     0.999476
   32 H      6.248852     3.421406     7.034664    -2.905518     1.741116     0.999843
   33 H      3.565047     5.950095     6.802296    -2.469329     1.857634     0.999367
   34 H      7.300983     6.059289     6.966576    -2.295700     1.883714     0.998921
 
 2020/07/03  09:29:42
