   33
jmolscript: load "" {1 1 1} spacegroup "x,y,z" unitcell [{      8.415900     0.000000     0.000000 }, {      4.207950     7.288380     0.000000 }, {      0.000000     0.000000    24.000000 }]
Pt     0.000000     0.000000     0.000000    -0.031305
Pt     2.805301     4.858922     0.000000    -0.041897
Pt     1.402649     2.429458     0.000000    -0.027325
Pt     2.805297     0.000000     0.000000    -0.058686
Pt     5.610599     4.858922     0.000000    -0.029052
Pt     4.207946     2.429458     0.000000    -0.031491
Pt     5.610603     0.000000     0.000000    -0.029654
Pt     8.415904     4.858922     0.000000    -0.031888
Pt     7.013251     2.429458     0.000000    -0.027236
Pt     4.207950     5.668742     2.290536     0.080334
Pt     2.805301     3.239284     2.290536     0.078445
Pt     1.402649     0.809819     2.290536     0.055713
Pt     7.013247     5.668742     2.290536     0.058170
Pt     5.610599     3.239284     2.290536     0.018865
Pt     4.207946     0.809819     2.290536     0.056217
Pt     9.818553     5.668742     2.290536     0.093620
Pt     8.415904     3.239284     2.290536     0.032538
Pt     7.013251     0.809819     2.290536     0.033006
Pt     5.610603     6.478568     4.581048    -0.069081
Pt     4.207950     4.049103     4.581048    -0.068867
Pt     2.805297     1.619638     4.581048    -0.065702
Pt     8.415900     6.478568     4.581048    -0.153463
Pt     7.013247     4.049103     4.581048     0.007022
Pt     5.610603     1.619638     4.581048     0.015736
Pt    11.221206     6.478568     4.581048    -0.129969
Pt     9.818553     4.049103     4.581048    -0.119638
Pt     8.415900     1.619638     4.581048     0.032671
C      6.800089     1.763394     6.189672     0.119367
C      7.422087     3.047760     6.227160     0.138597
O      6.767444     0.989558     7.285104    -0.305110
O      8.033006     3.497030     7.323120    -0.294701
H      6.430930     0.103517     7.008984     0.341770
H      8.503160     4.328489     7.079136     0.352991
 
 Chargemol version 3.5 September 26, 2017.
See ddec.sourceforge.net for latest version.
 
Computational parameters:
Number of radial integration shells =    100
Cutoff radius (pm) =    500
Error in the integrated total number of electrons before renormalization (e) =    9.4281E-05
Charge convergence tolerance =    1.0000E-05
Minimum radius for electron cloud penetration fitting (pm) =    200
Minimum decay exponent for electron density of buried atom tails =   1.7500
Maximum decay exponent for electron density of buried atom tails =  2.5000
Number of iterations to convergence =      7
 
The following XYZ coordinates are in angstroms. The atomic dipoles and quadrupoles are in atomic units.
atom number, atomic symbol, x, y, z, net_charge, dipole_x, dipole_y, dipole_z, dipole_mag, Qxy, Qxz, Qyz,Q(x^2-y^2), Q(3z^2 - R^2), three eigenvalues of traceless quadrupole moment tensor
    1 Pt     0.000000     0.000000     0.000000    -0.031305     0.000478     0.000619    -0.118487     0.118490     0.004180    -0.000788     0.006570     0.000495     0.196089    -0.037150    -0.028653     0.065803
    2 Pt     2.805301     4.858922     0.000000    -0.041897     0.000453    -0.000273    -0.117028     0.117029     0.001727     0.001679    -0.002251    -0.002308     0.158373    -0.028552    -0.024337     0.052889
    3 Pt     1.402649     2.429458     0.000000    -0.027325    -0.000149    -0.000539    -0.115433     0.115434     0.003381    -0.004661    -0.002946    -0.009361     0.197857    -0.038871    -0.027392     0.066263
    4 Pt     2.805297     0.000000     0.000000    -0.058686    -0.000187     0.000896    -0.104548     0.104552    -0.002411     0.000950    -0.000178     0.007197     0.054605    -0.013433    -0.004809     0.018242
    5 Pt     5.610599     4.858922     0.000000    -0.029052    -0.001394    -0.002287    -0.110535     0.110568     0.000382     0.010308    -0.003380     0.004389     0.173065    -0.031338    -0.027713     0.059051
    6 Pt     4.207946     2.429458     0.000000    -0.031491     0.001649     0.001690    -0.110127     0.110152    -0.001820     0.005420    -0.007283    -0.007107     0.176485    -0.033558    -0.026225     0.059783
    7 Pt     5.610603     0.000000     0.000000    -0.029654     0.000337     0.001617    -0.114861     0.114873    -0.003559    -0.001355     0.008522     0.003148     0.186046    -0.035339    -0.027469     0.062807
    8 Pt     8.415904     4.858922     0.000000    -0.031888    -0.000559    -0.001178    -0.113891     0.113899    -0.001394    -0.008296    -0.003635     0.005982     0.190928    -0.035434    -0.029071     0.064504
    9 Pt     7.013251     2.429458     0.000000    -0.027236    -0.000689    -0.000084    -0.106124     0.106126    -0.001555    -0.003001     0.002670    -0.001777     0.221604    -0.038739    -0.035276     0.074015
   10 Pt     4.207950     5.668742     2.290536     0.080334    -0.000712    -0.000463     0.006624     0.006678    -0.003371    -0.004594    -0.003193    -0.015420     0.100724    -0.025652    -0.008482     0.034134
   11 Pt     2.805301     3.239284     2.290536     0.078445    -0.000194     0.001013     0.007315     0.007387     0.002470    -0.001729     0.004925     0.010106     0.095706    -0.022074    -0.010334     0.032408
   12 Pt     1.402649     0.809819     2.290536     0.055713     0.019540    -0.011914    -0.023375     0.032713    -0.003878     0.022687    -0.011407     0.010099     0.070930    -0.021081    -0.017232     0.038313
   13 Pt     7.013247     5.668742     2.290536     0.058170     0.005923     0.030560    -0.021816     0.038012     0.003497     0.007958     0.027183    -0.019313     0.095808    -0.026709    -0.020374     0.047083
   14 Pt     5.610599     3.239284     2.290536     0.018865    -0.007149     0.002848    -0.026012     0.027127    -0.004939    -0.014845     0.008984     0.004820     0.076839    -0.018305    -0.014764     0.033069
   15 Pt     4.207946     0.809819     2.290536     0.056217    -0.022809    -0.019330    -0.021181     0.036640     0.008727    -0.020755    -0.020725     0.006085     0.083241    -0.025100    -0.019863     0.044963
   16 Pt     9.818553     5.668742     2.290536     0.093620    -0.002577     0.000298     0.016140     0.016347     0.001943    -0.000118    -0.000697    -0.005957     0.122633    -0.023995    -0.016891     0.040886
   17 Pt     8.415904     3.239284     2.290536     0.032538     0.006490     0.003867    -0.015745     0.017464     0.002518     0.013894     0.011032     0.007055     0.098818    -0.022216    -0.016769     0.038985
   18 Pt     7.013251     0.809819     2.290536     0.033006     0.000250    -0.006224    -0.015449     0.016657    -0.003246    -0.003756    -0.016020    -0.003744     0.092935    -0.022416    -0.013846     0.036261
   19 Pt     5.610603     6.478568     4.581048    -0.069081     0.006559     0.001884     0.098565     0.098801     0.016712    -0.005310    -0.001205     0.023675     0.094460    -0.036251     0.003737     0.032514
   20 Pt     4.207950     4.049103     4.581048    -0.068867    -0.010888     0.006117     0.095905     0.096715    -0.004979     0.021517    -0.013225     0.011596     0.059572    -0.020801    -0.015436     0.036237
   21 Pt     2.805297     1.619638     4.581048    -0.065702     0.002885    -0.006910     0.104533     0.104801    -0.005258    -0.002288     0.005662    -0.044041     0.107954    -0.040666     0.003578     0.037088
   22 Pt     8.415900     6.478568     4.581048    -0.153463    -0.021701     0.018795     0.017313     0.033525    -0.003166    -0.042148     0.034253     0.002020    -0.167815    -0.081983     0.024661     0.057322
   23 Pt     7.013247     4.049103     4.581048     0.007022    -0.034477     0.047176    -0.144446     0.155817    -0.009842    -0.005851    -0.068554    -0.027139    -0.125007    -0.083148     0.007930     0.075218
   24 Pt     5.610603     1.619638     4.581048     0.015736    -0.058877     0.002581    -0.113782     0.128138     0.011064     0.052118     0.034041     0.031554    -0.115142    -0.074106     0.001948     0.072158
   25 Pt    11.221206     6.478568     4.581048    -0.129969     0.020399    -0.007512    -0.014868     0.026337    -0.008950     0.056931     0.019828    -0.031151    -0.328352    -0.131082     0.058150     0.072932
   26 Pt     9.818553     4.049103     4.581048    -0.119638     0.018001    -0.012782     0.013144     0.025693     0.006632     0.011700    -0.061518     0.031245    -0.229510    -0.107057     0.051795     0.055263
   27 Pt     8.415900     1.619638     4.581048     0.032671     0.019123    -0.005843    -0.031375     0.037205    -0.014032    -0.043467     0.026555     0.020305     0.003306    -0.042803    -0.017604     0.060406
   28 C      6.800089     1.763394     6.189672     0.119367     0.007710    -0.043824     0.110153     0.118801    -0.065254    -0.035557     0.029383     0.071444     0.087444    -0.089455    -0.003205     0.092660
   29 C      7.422087     3.047760     6.227160     0.138597     0.038568     0.010881     0.113872     0.120717    -0.064885    -0.055699     0.015230     0.130621     0.070157    -0.104221    -0.011714     0.115934
   30 O      6.767444     0.989558     7.285104    -0.305110     0.010124     0.072325    -0.064246     0.097268     0.038755    -0.018510    -0.070413    -0.173104    -0.074877    -0.082736    -0.056749     0.139486
   31 O      8.033006     3.497030     7.323120    -0.294701    -0.053621    -0.052629    -0.063677     0.098487     0.084721     0.044555     0.062018    -0.028257    -0.082211    -0.074803    -0.060452     0.135255
   32 H      6.430930     0.103517     7.008984     0.341770    -0.011335    -0.034187     0.007095     0.036709     0.005512    -0.005219    -0.020935    -0.017438     0.017668    -0.015126    -0.013085     0.028211
   33 H      8.503160     4.328489     7.079136     0.352991     0.019350     0.031576     0.007282     0.037742     0.009653     0.013071     0.016254    -0.009463     0.010904    -0.015725    -0.011505     0.027230
 
The sperically averaged electron density of each atom fit to a function of the form exp(a - br) for r >=rmin_cloud_penetration
atom number,atomic symbol, x, y, z, a, b, Rsquared where a and b are in atomic units and Rsquared is the squared correlation coefficient
    1 Pt     0.000000     0.000000     0.000000     0.617882     1.734188     0.999926
    2 Pt     2.805301     4.858922     0.000000     0.620293     1.733524     0.999929
    3 Pt     1.402649     2.429458     0.000000     0.611065     1.733115     0.999931
    4 Pt     2.805297     0.000000     0.000000     0.634856     1.732992     0.999936
    5 Pt     5.610599     4.858922     0.000000     0.612874     1.733060     0.999932
    6 Pt     4.207946     2.429458     0.000000     0.618437     1.733463     0.999932
    7 Pt     5.610603     0.000000     0.000000     0.613113     1.733192     0.999931
    8 Pt     8.415904     4.858922     0.000000     0.614519     1.733080     0.999934
    9 Pt     7.013251     2.429458     0.000000     0.614661     1.733363     0.999931
   10 Pt     4.207950     5.668742     2.290536     0.647737     1.751946     0.999995
   11 Pt     2.805301     3.239284     2.290536     0.649940     1.752334     0.999994
   12 Pt     1.402649     0.809819     2.290536     0.652712     1.751828     0.999997
   13 Pt     7.013247     5.668742     2.290536     0.650689     1.751164     0.999999
   14 Pt     5.610599     3.239284     2.290536     0.667864     1.752041     0.999997
   15 Pt     4.207946     0.809819     2.290536     0.647484     1.750707     0.999998
   16 Pt     9.818553     5.668742     2.290536     0.640698     1.751542     0.999996
   17 Pt     8.415904     3.239284     2.290536     0.662413     1.752383     0.999995
   18 Pt     7.013251     0.809819     2.290536     0.660308     1.751874     0.999996
   19 Pt     5.610603     6.478568     4.581048     0.777407     1.755330     0.999996
   20 Pt     4.207950     4.049103     4.581048     0.781361     1.756434     0.999997
   21 Pt     2.805297     1.619638     4.581048     0.748197     1.750779     0.999996
   22 Pt     8.415900     6.478568     4.581048     0.920537     1.772611     0.999992
   23 Pt     7.013247     4.049103     4.581048     0.635967     1.758808     0.999960
   24 Pt     5.610603     1.619638     4.581048     0.629878     1.757161     0.999966
   25 Pt    11.221206     6.478568     4.581048     0.884234     1.773095     0.999990
   26 Pt     9.818553     4.049103     4.581048     0.883328     1.772998     0.999988
   27 Pt     8.415900     1.619638     4.581048     0.589867     1.751299     0.999982
   28 C      6.800089     1.763394     6.189672    -0.609151     1.807877     0.999825
   29 C      7.422087     3.047760     6.227160    -0.617919     1.810334     0.999818
   30 O      6.767444     0.989558     7.285104    -1.772494     1.722632     0.999719
   31 O      8.033006     3.497030     7.323120    -1.828621     1.721207     0.999687
   32 H      6.430930     0.103517     7.008984    -2.869251     1.802013     0.997925
   33 H      8.503160     4.328489     7.079136    -3.010574     1.787835     0.997872
 
 2020/07/02  12:36:21
