   35
jmolscript: load "" {1 1 1} spacegroup "x,y,z" unitcell [{      8.415900     0.000000     0.000000 }, {      4.207950     7.288380     0.000000 }, {      0.000000     0.000000    24.000000 }]
Pt     0.000000     0.000000     0.000000    -0.037080
Pt     2.805301     4.858922     0.000000    -0.048338
Pt     1.402649     2.429458     0.000000    -0.041948
Pt     2.805297     0.000000     0.000000    -0.031193
Pt     5.610599     4.858922     0.000000    -0.025474
Pt     4.207946     2.429458     0.000000    -0.043044
Pt     5.610603     0.000000     0.000000    -0.033486
Pt     8.415904     4.858922     0.000000    -0.028915
Pt     7.013251     2.429458     0.000000    -0.035580
Pt     4.207950     5.668742     2.290536     0.048580
Pt     2.805301     3.239284     2.290536     0.086919
Pt     1.402649     0.809819     2.290536     0.054018
Pt     7.013247     5.668742     2.290536    -0.003032
Pt     5.610599     3.239284     2.290536     0.037950
Pt     4.207946     0.809819     2.290536     0.050991
Pt     9.818553     5.668742     2.290536     0.057727
Pt     8.415904     3.239284     2.290536     0.046516
Pt     7.013251     0.809819     2.290536     0.089629
Pt     5.610603     6.478568     4.581048     0.112815
Pt     4.207950     4.049103     4.581048    -0.078425
Pt     2.805297     1.619638     4.581048    -0.071827
Pt     8.415900     6.478568     4.581048     0.071902
Pt     7.013247     4.049103     4.581048     0.125335
Pt     5.610603     1.619638     4.581048    -0.131868
Pt    11.221206     6.478568     4.581048    -0.132354
Pt     9.818553     4.049103     4.581048    -0.099245
Pt     8.415900     1.619638     4.581048    -0.178522
C      7.464058     3.672637     6.830424     0.044765
C      6.707607     4.879395     6.831048     0.320991
C      6.999702     5.814429     5.779920    -0.219499
O      6.887993     2.639093     7.508016    -0.394489
O      5.557764     4.970610     7.511664    -0.364934
H      8.557068     3.698926     6.744672     0.108026
H      7.187713     1.793371     7.095432     0.358161
H      5.379856     4.094291     7.925160     0.384932
 
 Chargemol version 3.5 September 26, 2017.
See ddec.sourceforge.net for latest version.
 
Computational parameters:
Number of radial integration shells =    100
Cutoff radius (pm) =    500
Error in the integrated total number of electrons before renormalization (e) =    6.6449E-05
Charge convergence tolerance =    1.0000E-05
Minimum radius for electron cloud penetration fitting (pm) =    200
Minimum decay exponent for electron density of buried atom tails =   1.7500
Maximum decay exponent for electron density of buried atom tails =  2.5000
Number of iterations to convergence =      7
 
The following XYZ coordinates are in angstroms. The atomic dipoles and quadrupoles are in atomic units.
atom number, atomic symbol, x, y, z, net_charge, dipole_x, dipole_y, dipole_z, dipole_mag, Qxy, Qxz, Qyz,Q(x^2-y^2), Q(3z^2 - R^2), three eigenvalues of traceless quadrupole moment tensor
    1 Pt     0.000000     0.000000     0.000000    -0.037080    -0.001175     0.000114    -0.112524     0.112531     0.002863     0.008435    -0.005764    -0.002466     0.180288    -0.034271    -0.026932     0.061202
    2 Pt     2.805301     4.858922     0.000000    -0.048338     0.002102     0.005250    -0.105736     0.105887     0.001745    -0.002812    -0.013657    -0.006992     0.096873    -0.020058    -0.016238     0.036296
    3 Pt     1.402649     2.429458     0.000000    -0.041948     0.000080    -0.004764    -0.107148     0.107253     0.002284     0.002865     0.010063     0.000504     0.121963    -0.023262    -0.019167     0.042429
    4 Pt     2.805297     0.000000     0.000000    -0.031193     0.000221     0.001868    -0.103486     0.103503    -0.000298     0.001179    -0.008133     0.005497     0.170892    -0.031980    -0.025745     0.057725
    5 Pt     5.610599     4.858922     0.000000    -0.025474    -0.000045    -0.002394    -0.102253     0.102281    -0.003764     0.007693     0.003620     0.001081     0.192658    -0.036521    -0.028425     0.064946
    6 Pt     4.207946     2.429458     0.000000    -0.043044    -0.000856    -0.004835    -0.108457     0.108568    -0.001461     0.001333     0.010089     0.002469     0.139042    -0.026415    -0.021361     0.047776
    7 Pt     5.610603     0.000000     0.000000    -0.033486     0.000526     0.001268    -0.109892     0.109901    -0.003467    -0.008866    -0.006505     0.003056     0.178056    -0.034613    -0.026038     0.060651
    8 Pt     8.415904     4.858922     0.000000    -0.028915    -0.001052    -0.002424    -0.104557     0.104590     0.000999    -0.006140     0.005466     0.000279     0.199049    -0.034843    -0.032175     0.067018
    9 Pt     7.013251     2.429458     0.000000    -0.035580     0.000142     0.004000    -0.104626     0.104702    -0.001673    -0.001364     0.006915    -0.002415     0.171367    -0.030673    -0.027037     0.057710
   10 Pt     4.207950     5.668742     2.290536     0.048580    -0.020284    -0.016664    -0.026841     0.037545    -0.001048    -0.032879    -0.012995    -0.001575     0.064881    -0.034411    -0.009521     0.043932
   11 Pt     2.805301     3.239284     2.290536     0.086919     0.000761     0.002701     0.012771     0.013076     0.000847    -0.001052     0.003259     0.002971     0.093678    -0.017563    -0.013904     0.031467
   12 Pt     1.402649     0.809819     2.290536     0.054018     0.000672     0.021309    -0.015038     0.026090    -0.005269    -0.009416     0.029613     0.003074     0.075317    -0.030005    -0.013162     0.043167
   13 Pt     7.013247     5.668742     2.290536    -0.003032     0.004682     0.014976    -0.041991     0.044827     0.003186     0.005689     0.015495    -0.009794     0.088685    -0.020663    -0.015002     0.035665
   14 Pt     5.610599     3.239284     2.290536     0.037950    -0.022063    -0.014001    -0.027402     0.037863     0.001516    -0.022707    -0.021220    -0.008351     0.057007    -0.029265    -0.010149     0.039414
   15 Pt     4.207946     0.809819     2.290536     0.050991    -0.000966     0.020597    -0.015733     0.025937     0.007044     0.010146     0.024417    -0.005345     0.070286    -0.022490    -0.016831     0.039320
   16 Pt     9.818553     5.668742     2.290536     0.057727     0.016940    -0.015372    -0.019245     0.029894    -0.002675     0.026438    -0.008871     0.005783     0.088329    -0.025087    -0.018623     0.043710
   17 Pt     8.415904     3.239284     2.290536     0.046516     0.022155    -0.012721    -0.023253     0.034545    -0.003577     0.023361    -0.021351    -0.004112     0.069370    -0.028145    -0.014659     0.042805
   18 Pt     7.013251     0.809819     2.290536     0.089629     0.000450     0.001940     0.014195     0.014334    -0.002566    -0.000677     0.001301     0.003059     0.115764    -0.022292    -0.016334     0.038626
   19 Pt     5.610603     6.478568     4.581048     0.112815    -0.020939     0.019925    -0.039916     0.049282    -0.038527     0.114387    -0.068621     0.096969    -0.133549    -0.131573    -0.034866     0.166439
   20 Pt     4.207950     4.049103     4.581048    -0.078425    -0.019060     0.002557     0.068426     0.071077    -0.008532     0.022902     0.032807    -0.009402    -0.009353    -0.044523     0.007555     0.036968
   21 Pt     2.805297     1.619638     4.581048    -0.071827     0.003136    -0.014619     0.080602     0.081977    -0.006477     0.005270    -0.059722    -0.019680    -0.042545    -0.060341    -0.003790     0.064131
   22 Pt     8.415900     6.478568     4.581048     0.071902     0.012067     0.030463    -0.051163     0.060756     0.044249    -0.124262    -0.050262     0.090648    -0.197481    -0.141423    -0.030428     0.171851
   23 Pt     7.013247     4.049103     4.581048     0.125335    -0.000525     0.027141    -0.055618     0.061889    -0.001131     0.010743     0.095452    -0.126089     0.069873    -0.078858    -0.055151     0.134008
   24 Pt     5.610603     1.619638     4.581048    -0.131868    -0.009888    -0.004403     0.041375     0.042768    -0.015646    -0.012295     0.008681     0.027800    -0.070264    -0.027504    -0.008801     0.036304
   25 Pt    11.221206     6.478568     4.581048    -0.132354    -0.000802    -0.006759     0.057713     0.058113    -0.005257     0.004733    -0.027349    -0.059452    -0.045793    -0.027911    -0.021711     0.049623
   26 Pt     9.818553     4.049103     4.581048    -0.099245     0.015210    -0.002839     0.035941     0.039131     0.009903    -0.034710     0.013951     0.002239    -0.086334    -0.052220     0.017465     0.034755
   27 Pt     8.415900     1.619638     4.581048    -0.178522     0.016109     0.004432    -0.018472     0.024907     0.026723     0.021302     0.037386     0.023560    -0.236529    -0.091769     0.013476     0.078293
   28 C      7.464058     3.672637     6.830424     0.044765    -0.040714    -0.099746     0.050274     0.118889     0.026301     0.018341    -0.015094     0.003965     0.217662    -0.066638    -0.010010     0.076649
   29 C      6.707607     4.879395     6.831048     0.320991    -0.088545     0.054109     0.034839     0.109461     0.019686     0.028446     0.056643    -0.000933     0.027438    -0.054956    -0.019459     0.074414
   30 C      6.999702     5.814429     5.779920    -0.219499     0.007180     0.035191     0.060327     0.070209    -0.027596    -0.004034     0.115738    -0.047787     0.083181    -0.102110    -0.035553     0.137663
   31 O      6.887993     2.639093     7.508016    -0.394489     0.068344     0.079299    -0.045955     0.114329     0.045941    -0.027604    -0.039339    -0.219952    -0.145725    -0.102936    -0.050206     0.153142
   32 O      5.557764     4.970610     7.511664    -0.364934     0.069653     0.009827    -0.057879     0.091094     0.055053    -0.092039    -0.049431     0.040453    -0.019850    -0.084913    -0.052305     0.137218
   33 H      8.557068     3.698926     6.744672     0.108026     0.065143    -0.000724     0.007513     0.065579    -0.000579     0.009729    -0.009798     0.002231     0.002203    -0.013393    -0.000927     0.014320
   34 H      7.187713     1.793371     7.095432     0.358161     0.006374    -0.034041    -0.001199     0.034653     0.006177    -0.004289    -0.016834    -0.018112    -0.021665    -0.016873    -0.007297     0.024170
   35 H      5.379856     4.094291     7.925160     0.384932    -0.019135    -0.029115     0.023050     0.041774     0.007696    -0.016427    -0.012030     0.014902     0.009741    -0.016802    -0.009640     0.026443
 
The sperically averaged electron density of each atom fit to a function of the form exp(a - br) for r >=rmin_cloud_penetration
atom number,atomic symbol, x, y, z, a, b, Rsquared where a and b are in atomic units and Rsquared is the squared correlation coefficient
    1 Pt     0.000000     0.000000     0.000000     0.609328     1.730659     0.999919
    2 Pt     2.805301     4.858922     0.000000     0.615567     1.729635     0.999927
    3 Pt     1.402649     2.429458     0.000000     0.609325     1.729594     0.999924
    4 Pt     2.805297     0.000000     0.000000     0.602512     1.729782     0.999926
    5 Pt     5.610599     4.858922     0.000000     0.600014     1.729488     0.999929
    6 Pt     4.207946     2.429458     0.000000     0.613374     1.729825     0.999926
    7 Pt     5.610603     0.000000     0.000000     0.602695     1.729776     0.999923
    8 Pt     8.415904     4.858922     0.000000     0.601165     1.729312     0.999932
    9 Pt     7.013251     2.429458     0.000000     0.604648     1.729523     0.999924
   10 Pt     4.207950     5.668742     2.290536     0.650415     1.750536     0.999995
   11 Pt     2.805301     3.239284     2.290536     0.629319     1.750484     0.999996
   12 Pt     1.402649     0.809819     2.290536     0.647161     1.750590     0.999997
   13 Pt     7.013247     5.668742     2.290536     0.686217     1.753884     0.999995
   14 Pt     5.610599     3.239284     2.290536     0.664055     1.752467     0.999996
   15 Pt     4.207946     0.809819     2.290536     0.649321     1.750692     0.999996
   16 Pt     9.818553     5.668742     2.290536     0.652147     1.751333     0.999996
   17 Pt     8.415904     3.239284     2.290536     0.660064     1.752317     0.999996
   18 Pt     7.013251     0.809819     2.290536     0.648848     1.751798     0.999995
   19 Pt     5.610603     6.478568     4.581048     0.606685     1.756074     0.999988
   20 Pt     4.207950     4.049103     4.581048     0.787723     1.761254     0.999984
   21 Pt     2.805297     1.619638     4.581048     0.846453     1.765500     0.999986
   22 Pt     8.415900     6.478568     4.581048     0.653083     1.760187     0.999981
   23 Pt     7.013247     4.049103     4.581048     0.557334     1.756322     0.999992
   24 Pt     5.610603     1.619638     4.581048     0.850162     1.765341     0.999995
   25 Pt    11.221206     6.478568     4.581048     0.933128     1.774142     0.999971
   26 Pt     9.818553     4.049103     4.581048     0.806404     1.764700     0.999961
   27 Pt     8.415900     1.619638     4.581048     0.866040     1.768829     0.999977
   28 C      7.464058     3.672637     6.830424    -0.836505     1.807778     0.999437
   29 C      6.707607     4.879395     6.831048    -0.838237     1.819891     0.999559
   30 C      6.999702     5.814429     5.779920    -0.448022     1.755818     0.999978
   31 O      6.887993     2.639093     7.508016    -1.534139     1.759367     0.999484
   32 O      5.557764     4.970610     7.511664    -1.582804     1.764854     0.999585
   33 H      8.557068     3.698926     6.744672    -2.414482     1.770941     0.999881
   34 H      7.187713     1.793371     7.095432    -2.413308     1.871036     0.999503
   35 H      5.379856     4.094291     7.925160    -3.511736     1.787711     0.993911
 
 2020/07/02  13:06:57
