   35
jmolscript: load "" {1 1 1} spacegroup "x,y,z" unitcell [{      8.415900     0.000000     0.000000 }, {      4.207950     7.288380     0.000000 }, {      0.000000     0.000000    24.000000 }]
Pt     0.000000     0.000000     0.000000    -0.040913
Pt     2.805301     4.858922     0.000000    -0.022657
Pt     1.402649     2.429458     0.000000    -0.022138
Pt     2.805297     0.000000     0.000000    -0.024251
Pt     5.610599     4.858922     0.000000    -0.022429
Pt     4.207946     2.429458     0.000000    -0.065731
Pt     5.610603     0.000000     0.000000    -0.022040
Pt     8.415904     4.858922     0.000000    -0.032955
Pt     7.013251     2.429458     0.000000    -0.023726
Pt     4.207950     5.668742     2.290536     0.069897
Pt     2.805301     3.239284     2.290536     0.047148
Pt     1.402649     0.809819     2.290536     0.075279
Pt     7.013247     5.668742     2.290536     0.024247
Pt     5.610599     3.239284     2.290536     0.044559
Pt     4.207946     0.809819     2.290536     0.043618
Pt     9.818553     5.668742     2.290536     0.023583
Pt     8.415904     3.239284     2.290536     0.029215
Pt     7.013251     0.809819     2.290536     0.074393
Pt     5.610603     6.478568     4.581048    -0.041958
Pt     4.207950     4.049103     4.581048    -0.058728
Pt     2.805297     1.619638     4.581048    -0.072030
Pt     8.415900     6.478568     4.581048     0.126526
Pt     7.013247     4.049103     4.581048     0.094712
Pt     5.610603     1.619638     4.581048    -0.088219
Pt    11.221206     6.478568     4.581048    -0.027485
Pt     9.818553     4.049103     4.581048     0.085867
Pt     8.415900     1.619638     4.581048    -0.088221
C      8.247611     3.434525     7.882368    -0.031059
C      8.412870     4.866845     5.757840    -0.242293
C      8.601365     4.783182     7.248384     0.428847
O      9.046958     5.737019     7.866360    -0.325050
O      6.872622     3.128953     7.723320    -0.396962
H      8.900997     2.668793     7.417944     0.077833
H      8.459785     3.512219     8.958720     0.120456
H      6.751921     2.637249     6.880992     0.282666
 
 Chargemol version 3.5 September 26, 2017.
See ddec.sourceforge.net for latest version.
 
Computational parameters:
Number of radial integration shells =    100
Cutoff radius (pm) =    500
Error in the integrated total number of electrons before renormalization (e) =    6.0583E-05
Charge convergence tolerance =    1.0000E-05
Minimum radius for electron cloud penetration fitting (pm) =    200
Minimum decay exponent for electron density of buried atom tails =   1.7500
Maximum decay exponent for electron density of buried atom tails =  2.5000
Number of iterations to convergence =      7
 
The following XYZ coordinates are in angstroms. The atomic dipoles and quadrupoles are in atomic units.
atom number, atomic symbol, x, y, z, net_charge, dipole_x, dipole_y, dipole_z, dipole_mag, Qxy, Qxz, Qyz,Q(x^2-y^2), Q(3z^2 - R^2), three eigenvalues of traceless quadrupole moment tensor
    1 Pt     0.000000     0.000000     0.000000    -0.040913    -0.000134    -0.000602    -0.122114     0.122116    -0.000068     0.000176    -0.000352    -0.000038     0.185479    -0.030984    -0.030844     0.061828
    2 Pt     2.805301     4.858922     0.000000    -0.022657    -0.000176    -0.000895    -0.115963     0.115967     0.002135    -0.005822    -0.003253    -0.006107     0.207504    -0.038510    -0.031086     0.069596
    3 Pt     1.402649     2.429458     0.000000    -0.022138     0.001646     0.000836    -0.117308     0.117323     0.003059    -0.000675     0.007257     0.000248     0.207921    -0.038028    -0.031785     0.069813
    4 Pt     2.805297     0.000000     0.000000    -0.024251     0.001621     0.001216    -0.114772     0.114790     0.001792     0.005710    -0.005773     0.005168     0.194060    -0.036015    -0.029334     0.065350
    5 Pt     5.610599     4.858922     0.000000    -0.022429     0.000824    -0.001073    -0.115130     0.115138    -0.002418     0.005255    -0.003466    -0.005273     0.203796    -0.037674    -0.030651     0.068324
    6 Pt     4.207946     2.429458     0.000000    -0.065731     0.000126    -0.001251    -0.087372     0.087381    -0.000373    -0.000119     0.001611     0.000834    -0.022386    -0.007698     0.003361     0.004337
    7 Pt     5.610603     0.000000     0.000000    -0.022040    -0.001306     0.000086    -0.116251     0.116259    -0.002222    -0.006086    -0.003120     0.005912     0.206117    -0.038281    -0.030877     0.069158
    8 Pt     8.415904     4.858922     0.000000    -0.032955    -0.000725    -0.000102    -0.104281     0.104283     0.000085     0.000918     0.001138     0.000722     0.213577    -0.035977    -0.035235     0.071212
    9 Pt     7.013251     2.429458     0.000000    -0.023726    -0.000990     0.001622    -0.115879     0.115894    -0.003285    -0.001198     0.006041     0.000220     0.199990    -0.036742    -0.030304     0.067046
   10 Pt     4.207950     5.668742     2.290536     0.069897     0.000721    -0.001682    -0.001732     0.002520     0.000190     0.000939    -0.000319     0.004622     0.083155    -0.016181    -0.011562     0.027743
   11 Pt     2.805301     3.239284     2.290536     0.047148     0.021515    -0.011953    -0.028839     0.037913    -0.003543     0.025513    -0.016147     0.003140     0.042938    -0.025935    -0.011030     0.036965
   12 Pt     1.402649     0.809819     2.290536     0.075279     0.000050     0.000756     0.002904     0.003001    -0.001854    -0.001960     0.001809    -0.001613     0.094097    -0.017714    -0.013809     0.031522
   13 Pt     7.013247     5.668742     2.290536     0.024247    -0.003631     0.001316    -0.027756     0.028023    -0.006203    -0.013262     0.005151     0.006999     0.057029    -0.016853    -0.009214     0.026066
   14 Pt     5.610599     3.239284     2.290536     0.044559    -0.021521    -0.012777    -0.029309     0.038542     0.002577    -0.027987    -0.018982    -0.000603     0.043323    -0.030472    -0.009468     0.039940
   15 Pt     4.207946     0.809819     2.290536     0.043618     0.000049     0.026288    -0.030926     0.040589     0.001021     0.000774     0.036283    -0.004978     0.042038    -0.032704    -0.009520     0.042225
   16 Pt     9.818553     5.668742     2.290536     0.023583     0.003074    -0.000544    -0.027198     0.027376     0.006618     0.012880     0.004171     0.007027     0.059305    -0.017735    -0.008355     0.026090
   17 Pt     8.415904     3.239284     2.290536     0.029215     0.000638    -0.003968    -0.022722     0.023075     0.000178     0.000857    -0.015866    -0.016639     0.070556    -0.020118    -0.010750     0.030868
   18 Pt     7.013251     0.809819     2.290536     0.074393    -0.000089     0.002336     0.002674     0.003552     0.001319     0.000982     0.003476     0.000306     0.096169    -0.017438    -0.014892     0.032330
   19 Pt     5.610603     6.478568     4.581048    -0.041958    -0.008155     0.002909     0.131847     0.132131    -0.005414     0.022214    -0.019157    -0.003294     0.257757    -0.049242    -0.043279     0.092521
   20 Pt     4.207950     4.049103     4.581048    -0.058728     0.003357    -0.006603     0.136576     0.136777     0.000197     0.006136     0.007859    -0.073662     0.299604    -0.086967    -0.013647     0.100613
   21 Pt     2.805297     1.619638     4.581048    -0.072030     0.008450     0.001985     0.121905     0.122214     0.033361     0.011293    -0.011693     0.044927     0.235335    -0.080976     0.000749     0.080227
   22 Pt     8.415900     6.478568     4.581048     0.126526     0.000405     0.016384     0.018324     0.024584     0.001726    -0.003687    -0.073555    -0.100072    -0.073363    -0.066670    -0.037696     0.104366
   23 Pt     7.013247     4.049103     4.581048     0.094712    -0.011806     0.014582    -0.016475     0.024969     0.039198     0.060647     0.073743     0.065342    -0.147974    -0.109655    -0.012451     0.122107
   24 Pt     5.610603     1.619638     4.581048    -0.088219    -0.027650    -0.010897     0.086946     0.091885    -0.041228    -0.037591    -0.022504     0.029477     0.183612    -0.085556     0.008777     0.076779
   25 Pt    11.221206     6.478568     4.581048    -0.027485     0.007498     0.005168     0.136138     0.136442     0.003944    -0.018875    -0.016481    -0.000463     0.258359    -0.047117    -0.043828     0.090945
   26 Pt     9.818553     4.049103     4.581048     0.085867     0.008285    -0.000214    -0.013469     0.015814    -0.038284    -0.061991     0.059778     0.046626    -0.128389    -0.093148    -0.018937     0.112084
   27 Pt     8.415900     1.619638     4.581048    -0.088221     0.011465    -0.023797     0.061148     0.066610     0.004692     0.012377    -0.010808    -0.012812     0.033350    -0.021027     0.000812     0.020216
   28 C      8.247611     3.434525     7.882368    -0.031059    -0.130219    -0.016885    -0.007817     0.131541     0.002953    -0.014044     0.002472     0.058818    -0.086616    -0.032011    -0.014550     0.046561
   29 C      8.412870     4.866845     5.757840    -0.242293    -0.008530     0.016678     0.019339     0.026924     0.002746    -0.020693     0.021161    -0.008151    -0.152707    -0.061338     0.026013     0.035325
   30 C      8.601365     4.783182     7.248384     0.428847    -0.012035     0.031404    -0.007466     0.034450    -0.076355    -0.042409    -0.009792     0.212507    -0.218966    -0.109952    -0.063103     0.173055
   31 O      9.046958     5.737019     7.866360    -0.325050    -0.018844    -0.022464    -0.035462     0.046014    -0.033514    -0.014652     0.077512     0.137423    -0.260397    -0.139626     0.014170     0.125456
   32 O      6.872622     3.128953     7.723320    -0.396962     0.137606     0.021263     0.013688     0.139910     0.091165     0.065267     0.086395     0.172583    -0.053892    -0.146208    -0.035020     0.181228
   33 H      8.900997     2.668793     7.417944     0.077833     0.024303    -0.037053    -0.015604     0.046980    -0.001122     0.001757     0.000776    -0.000553    -0.046623    -0.015705     0.006769     0.008936
   34 H      8.459785     3.512219     8.958720     0.120456    -0.003021     0.004338     0.047849     0.048140     0.001971    -0.002963    -0.001972     0.017294     0.024117    -0.013018     0.002945     0.010073
   35 H      6.751921     2.637249     6.880992     0.282666    -0.011702    -0.022886    -0.019151     0.032054     0.010748     0.002890     0.006553     0.023833    -0.044500    -0.018155    -0.005977     0.024132
 
The sperically averaged electron density of each atom fit to a function of the form exp(a - br) for r >=rmin_cloud_penetration
atom number,atomic symbol, x, y, z, a, b, Rsquared where a and b are in atomic units and Rsquared is the squared correlation coefficient
    1 Pt     0.000000     0.000000     0.000000     0.634256     1.737253     0.999928
    2 Pt     2.805301     4.858922     0.000000     0.617462     1.735311     0.999939
    3 Pt     1.402649     2.429458     0.000000     0.616485     1.735315     0.999939
    4 Pt     2.805297     0.000000     0.000000     0.618048     1.735281     0.999939
    5 Pt     5.610599     4.858922     0.000000     0.617312     1.735228     0.999940
    6 Pt     4.207946     2.429458     0.000000     0.652979     1.735586     0.999942
    7 Pt     5.610603     0.000000     0.000000     0.616528     1.735317     0.999939
    8 Pt     8.415904     4.858922     0.000000     0.628553     1.735703     0.999941
    9 Pt     7.013251     2.429458     0.000000     0.618137     1.735324     0.999939
   10 Pt     4.207950     5.668742     2.290536     0.666727     1.754460     0.999996
   11 Pt     2.805301     3.239284     2.290536     0.665927     1.752661     0.999998
   12 Pt     1.402649     0.809819     2.290536     0.657861     1.753001     0.999997
   13 Pt     7.013247     5.668742     2.290536     0.675956     1.754903     0.999993
   14 Pt     5.610599     3.239284     2.290536     0.667632     1.752734     0.999998
   15 Pt     4.207946     0.809819     2.290536     0.667784     1.752579     0.999998
   16 Pt     9.818553     5.668742     2.290536     0.674730     1.754629     0.999993
   17 Pt     8.415904     3.239284     2.290536     0.668289     1.753632     0.999993
   18 Pt     7.013251     0.809819     2.290536     0.658478     1.753121     0.999997
   19 Pt     5.610603     6.478568     4.581048     0.773807     1.767815     0.999985
   20 Pt     4.207950     4.049103     4.581048     0.783864     1.768182     0.999985
   21 Pt     2.805297     1.619638     4.581048     0.837267     1.775876     0.999978
   22 Pt     8.415900     6.478568     4.581048     0.609320     1.761134     0.999985
   23 Pt     7.013247     4.049103     4.581048     0.610523     1.761733     0.999958
   24 Pt     5.610603     1.619638     4.581048     0.753112     1.763522     0.999955
   25 Pt    11.221206     6.478568     4.581048     0.772312     1.769056     0.999988
   26 Pt     9.818553     4.049103     4.581048     0.628037     1.762940     0.999958
   27 Pt     8.415900     1.619638     4.581048     0.799897     1.771684     0.999974
   28 C      8.247611     3.434525     7.882368    -0.890398     1.833740     0.999557
   29 C      8.412870     4.866845     5.757840    -0.444657     1.756784     0.999993
   30 C      8.601365     4.783182     7.248384    -0.601799     1.868630     0.999811
   31 O      9.046958     5.737019     7.866360    -1.614476     1.789469     0.999365
   32 O      6.872622     3.128953     7.723320    -1.386258     1.792239     0.999536
   33 H      8.900997     2.668793     7.417944    -2.093666     1.880208     0.999653
   34 H      8.459785     3.512219     8.958720    -3.621954     1.757324     0.990406
   35 H      6.751921     2.637249     6.880992    -1.980320     1.918646     0.999823
 
 2020/06/29  15:03:15
