   30
jmolscript: load "" {1 1 1} spacegroup "x,y,z" unitcell [{      8.415900     0.000000     0.000000 }, {      4.207950     7.288380     0.000000 }, {      0.000000     0.000000    24.000000 }]
Pt     0.000000     0.000000     0.000000    -0.037174
Pt     2.805301     4.858922     0.000000    -0.040288
Pt     1.402649     2.429458     0.000000    -0.033682
Pt     2.805297     0.000000     0.000000    -0.051603
Pt     5.610599     4.858922     0.000000    -0.025764
Pt     4.207946     2.429458     0.000000    -0.027533
Pt     5.610603     0.000000     0.000000    -0.026385
Pt     8.415904     4.858922     0.000000    -0.028605
Pt     7.013251     2.429458     0.000000    -0.030397
Pt     4.207950     5.668742     2.290536     0.072232
Pt     2.805301     3.239284     2.290536     0.070958
Pt     1.402649     0.809819     2.290536     0.077633
Pt     7.013247     5.668742     2.290536     0.047524
Pt     5.610599     3.239284     2.290536     0.012194
Pt     4.207946     0.809819     2.290536     0.044307
Pt     9.818553     5.668742     2.290536     0.082260
Pt     8.415904     3.239284     2.290536     0.038760
Pt     7.013251     0.809819     2.290536     0.036238
Pt     5.610603     6.478568     4.581048    -0.076786
Pt     4.207950     4.049103     4.581048     0.003660
Pt     2.805297     1.619638     4.581048    -0.076712
Pt     8.415900     6.478568     4.581048    -0.082906
Pt     7.013247     4.049103     4.581048     0.123675
Pt     5.610603     1.619638     4.581048     0.124564
Pt    11.221206     6.478568     4.581048    -0.079761
Pt     9.818553     4.049103     4.581048    -0.082040
Pt     8.415900     1.619638     4.581048     0.011882
C      6.321246     2.828992     6.099408    -0.383386
H      7.096013     2.381631     6.744984     0.168694
H      5.524908     3.288714     6.713400     0.168442
 
 Chargemol version 3.5 September 26, 2017.
See ddec.sourceforge.net for latest version.
 
Computational parameters:
Number of radial integration shells =    100
Cutoff radius (pm) =    500
Error in the integrated total number of electrons before renormalization (e) =    5.5850E-05
Charge convergence tolerance =    1.0000E-05
Minimum radius for electron cloud penetration fitting (pm) =    200
Minimum decay exponent for electron density of buried atom tails =   1.7500
Maximum decay exponent for electron density of buried atom tails =  2.5000
Number of iterations to convergence =      7
 
The following XYZ coordinates are in angstroms. The atomic dipoles and quadrupoles are in atomic units.
atom number, atomic symbol, x, y, z, net_charge, dipole_x, dipole_y, dipole_z, dipole_mag, Qxy, Qxz, Qyz,Q(x^2-y^2), Q(3z^2 - R^2), three eigenvalues of traceless quadrupole moment tensor
    1 Pt     0.000000     0.000000     0.000000    -0.037174    -0.002152     0.003256    -0.113814     0.113881     0.002188     0.003343    -0.001572    -0.004198     0.155550    -0.029125    -0.022894     0.052019
    2 Pt     2.805301     4.858922     0.000000    -0.040288     0.001663    -0.000925    -0.112997     0.113013     0.002575     0.000887    -0.001597    -0.003001     0.152279    -0.028391    -0.022412     0.050803
    3 Pt     1.402649     2.429458     0.000000    -0.033682    -0.003585    -0.000015    -0.110875     0.110933     0.004349     0.004078    -0.001630    -0.003364     0.156004    -0.030885    -0.021350     0.052236
    4 Pt     2.805297     0.000000     0.000000    -0.051603     0.007038    -0.003720    -0.099539     0.099857    -0.000679    -0.014342     0.009526     0.004126     0.073164    -0.018289    -0.013135     0.031424
    5 Pt     5.610599     4.858922     0.000000    -0.025764    -0.000355     0.000192    -0.111850     0.111851    -0.000945     0.004220    -0.007520     0.000684     0.194994    -0.033699    -0.032060     0.065760
    6 Pt     4.207946     2.429458     0.000000    -0.027533    -0.000379    -0.000239    -0.111304     0.111305    -0.000777     0.007715    -0.000601    -0.002050     0.200260    -0.035175    -0.032168     0.067343
    7 Pt     5.610603     0.000000     0.000000    -0.026385     0.000924     0.000785    -0.112014     0.112021    -0.001967    -0.002211     0.008039     0.008139     0.192748    -0.037185    -0.027764     0.064948
    8 Pt     8.415904     4.858922     0.000000    -0.028605     0.000155    -0.000926    -0.112070     0.112074    -0.003061    -0.006985    -0.002578     0.001006     0.198877    -0.036665    -0.030173     0.066839
    9 Pt     7.013251     2.429458     0.000000    -0.030397     0.001533    -0.001316    -0.101642     0.101662    -0.001518    -0.008042     0.004490    -0.001591     0.178068    -0.031673    -0.028635     0.060308
   10 Pt     4.207950     5.668742     2.290536     0.072232    -0.000559     0.004343    -0.001279     0.004562    -0.004707    -0.003805     0.006267    -0.010795     0.085477    -0.021448    -0.008482     0.029930
   11 Pt     2.805301     3.239284     2.290536     0.070958    -0.004328    -0.001616    -0.000087     0.004621     0.000034    -0.010032    -0.000500     0.009254     0.082502    -0.018384    -0.011690     0.030074
   12 Pt     1.402649     0.809819     2.290536     0.077633     0.004626    -0.002598     0.002323     0.005791    -0.000867     0.008933    -0.002898     0.008001     0.086384    -0.018591    -0.012329     0.030919
   13 Pt     7.013247     5.668742     2.290536     0.047524    -0.002305     0.027263    -0.027778     0.038989     0.003662     0.001420     0.037524    -0.005006     0.065844    -0.033998    -0.013401     0.047399
   14 Pt     5.610599     3.239284     2.290536     0.012194    -0.004439     0.002765    -0.035521     0.035904    -0.007225    -0.010512     0.006923     0.006488     0.046314    -0.015639    -0.006893     0.022532
   15 Pt     4.207946     0.809819     2.290536     0.044307    -0.025660    -0.011254    -0.028037     0.039638     0.002460    -0.032812    -0.020050    -0.000123     0.055879    -0.034858    -0.011443     0.046301
   16 Pt     9.818553     5.668742     2.290536     0.082260    -0.000420    -0.000886     0.007992     0.008052    -0.000913     0.001504    -0.002290    -0.002705     0.109429    -0.019881    -0.016736     0.036617
   17 Pt     8.415904     3.239284     2.290536     0.038760     0.012526    -0.006317    -0.023077     0.027006     0.003571     0.025981     0.001289     0.006553     0.052776    -0.022891    -0.011776     0.034667
   18 Pt     7.013251     0.809819     2.290536     0.036238     0.012650    -0.006994    -0.024580     0.028515    -0.002543     0.011100    -0.021257    -0.004124     0.045487    -0.020463    -0.010843     0.031306
   19 Pt     5.610603     6.478568     4.581048    -0.076786     0.005446     0.017071     0.099530     0.101130     0.021893     0.006874    -0.010209     0.037594     0.154899    -0.056043     0.002962     0.053081
   20 Pt     4.207950     4.049103     4.581048     0.003660     0.018460    -0.011304     0.110930     0.113023    -0.024008     0.056959    -0.031627     0.029542     0.076841    -0.044857    -0.040992     0.085849
   21 Pt     2.805297     1.619638     4.581048    -0.076712    -0.011371    -0.012922     0.101404     0.102855    -0.007369     0.009773    -0.000478    -0.056007     0.154786    -0.055620     0.003100     0.052520
   22 Pt     8.415900     6.478568     4.581048    -0.082906    -0.000969     0.001240     0.114800     0.114811    -0.040924     0.004746    -0.003907     0.044412     0.178696    -0.076350     0.015932     0.060418
   23 Pt     7.013247     4.049103     4.581048     0.123675    -0.002052    -0.000254     0.000996     0.002295     0.056624    -0.066481    -0.102617    -0.051823    -0.002917    -0.095465    -0.061781     0.157246
   24 Pt     5.610603     1.619638     4.581048     0.124564    -0.000800     0.000958     0.000506     0.001347     0.051736     0.057799     0.108574    -0.067912    -0.001790    -0.096157    -0.061577     0.157734
   25 Pt    11.221206     6.478568     4.581048    -0.079761    -0.004806    -0.017435     0.097018     0.098689     0.021082    -0.013560     0.003941     0.028175     0.136010    -0.049077     0.000509     0.048569
   26 Pt     9.818553     4.049103     4.581048    -0.082040     0.013318     0.012810     0.099454     0.101157    -0.002874    -0.011218     0.008546    -0.052307     0.136968    -0.050359     0.001674     0.048685
   27 Pt     8.415900     1.619638     4.581048     0.011882    -0.025121     0.014356     0.112110     0.115784    -0.023007    -0.070536     0.042392     0.029756     0.075449    -0.062651    -0.039763     0.102414
   28 C      6.321246     2.828992     6.099408    -0.383386     0.001564    -0.001324    -0.004640     0.005072     0.049190    -0.001152     0.000277    -0.057192     0.066186    -0.067944     0.022072     0.045872
   29 H      7.096013     2.381631     6.744984     0.168694     0.029517    -0.016420     0.033795     0.047781    -0.001012     0.001105    -0.000809     0.000677     0.025901    -0.005384    -0.003406     0.008789
   30 H      5.524908     3.288714     6.713400     0.168442    -0.029738     0.016832     0.032688     0.047289    -0.001103    -0.001489     0.001081     0.001351     0.027122    -0.005817    -0.003493     0.009310
 
The sperically averaged electron density of each atom fit to a function of the form exp(a - br) for r >=rmin_cloud_penetration
atom number,atomic symbol, x, y, z, a, b, Rsquared where a and b are in atomic units and Rsquared is the squared correlation coefficient
    1 Pt     0.000000     0.000000     0.000000     0.622841     1.733767     0.999929
    2 Pt     2.805301     4.858922     0.000000     0.620396     1.733139     0.999931
    3 Pt     1.402649     2.429458     0.000000     0.616374     1.732685     0.999934
    4 Pt     2.805297     0.000000     0.000000     0.630389     1.732716     0.999935
    5 Pt     5.610599     4.858922     0.000000     0.611408     1.732670     0.999936
    6 Pt     4.207946     2.429458     0.000000     0.616663     1.733037     0.999936
    7 Pt     5.610603     0.000000     0.000000     0.609742     1.732622     0.999933
    8 Pt     8.415904     4.858922     0.000000     0.610525     1.732423     0.999936
    9 Pt     7.013251     2.429458     0.000000     0.615976     1.732822     0.999934
   10 Pt     4.207950     5.668742     2.290536     0.657106     1.752865     0.999996
   11 Pt     2.805301     3.239284     2.290536     0.659144     1.753238     0.999996
   12 Pt     1.402649     0.809819     2.290536     0.644123     1.751703     0.999996
   13 Pt     7.013247     5.668742     2.290536     0.669968     1.753106     0.999998
   14 Pt     5.610599     3.239284     2.290536     0.683251     1.755088     0.999994
   15 Pt     4.207946     0.809819     2.290536     0.667231     1.752497     0.999998
   16 Pt     9.818553     5.668742     2.290536     0.657557     1.752927     0.999995
   17 Pt     8.415904     3.239284     2.290536     0.674712     1.754455     0.999996
   18 Pt     7.013251     0.809819     2.290536     0.673994     1.754064     0.999996
   19 Pt     5.610603     6.478568     4.581048     0.724125     1.747300     0.999984
   20 Pt     4.207950     4.049103     4.581048     0.668319     1.754370     0.999976
   21 Pt     2.805297     1.619638     4.581048     0.723242     1.747382     0.999985
   22 Pt     8.415900     6.478568     4.581048     0.745968     1.750305     0.999981
   23 Pt     7.013247     4.049103     4.581048     0.619780     1.764529     0.999953
   24 Pt     5.610603     1.619638     4.581048     0.616829     1.763901     0.999951
   25 Pt    11.221206     6.478568     4.581048     0.724662     1.746881     0.999986
   26 Pt     9.818553     4.049103     4.581048     0.725759     1.746921     0.999987
   27 Pt     8.415900     1.619638     4.581048     0.664831     1.754284     0.999976
   28 C      6.321246     2.828992     6.099408    -0.725581     1.723995     0.999677
   29 H      7.096013     2.381631     6.744984    -3.796821     1.588006     0.994941
   30 H      5.524908     3.288714     6.713400    -3.738790     1.593553     0.995250
 
 2020/08/24  03:22:18
