   31
jmolscript: load "" {1 1 1} spacegroup "x,y,z" unitcell [{      8.415900     0.000000     0.000000 }, {      4.207950     7.288380     0.000000 }, {      0.000000     0.000000    24.000000 }]
Pt     0.000000     0.000000     0.000000    -0.040872
Pt     2.805301     4.858922     0.000000    -0.034410
Pt     1.402649     2.429458     0.000000    -0.034668
Pt     2.805297     0.000000     0.000000    -0.037445
Pt     5.610599     4.858922     0.000000    -0.029082
Pt     4.207946     2.429458     0.000000    -0.025176
Pt     5.610603     0.000000     0.000000    -0.033526
Pt     8.415904     4.858922     0.000000    -0.036847
Pt     7.013251     2.429458     0.000000    -0.023502
Pt     4.207950     5.668742     2.290536     0.047936
Pt     2.805301     3.239284     2.290536     0.053598
Pt     1.402649     0.809819     2.290536     0.076979
Pt     7.013247     5.668742     2.290536     0.050812
Pt     5.610599     3.239284     2.290536    -0.013865
Pt     4.207946     0.809819     2.290536     0.048876
Pt     9.818553     5.668742     2.290536     0.084438
Pt     8.415904     3.239284     2.290536     0.057615
Pt     7.013251     0.809819     2.290536     0.050090
Pt     5.610603     6.478568     4.581048    -0.025183
Pt     4.207950     4.049103     4.581048     0.109436
Pt     2.805297     1.619638     4.581048    -0.073622
Pt     8.415900     6.478568     4.581048    -0.083680
Pt     7.013247     4.049103     4.581048     0.106134
Pt     5.610603     1.619638     4.581048     0.058073
Pt    11.221206     6.478568     4.581048    -0.081494
Pt     9.818553     4.049103     4.581048    -0.099536
Pt     8.415900     1.619638     4.581048    -0.073628
C      5.605196     2.403890     6.507888    -0.095998
O      5.604358     3.780978     6.292176    -0.148808
H      4.674561     2.078617     6.999888     0.123374
H      6.534021     2.080920     7.005024     0.123982
 
 Chargemol version 3.5 September 26, 2017.
See ddec.sourceforge.net for latest version.
 
Computational parameters:
Number of radial integration shells =    100
Cutoff radius (pm) =    500
Error in the integrated total number of electrons before renormalization (e) =    1.6573E-05
Charge convergence tolerance =    1.0000E-05
Minimum radius for electron cloud penetration fitting (pm) =    200
Minimum decay exponent for electron density of buried atom tails =   1.7500
Maximum decay exponent for electron density of buried atom tails =  2.5000
Number of iterations to convergence =      7
 
The following XYZ coordinates are in angstroms. The atomic dipoles and quadrupoles are in atomic units.
atom number, atomic symbol, x, y, z, net_charge, dipole_x, dipole_y, dipole_z, dipole_mag, Qxy, Qxz, Qyz,Q(x^2-y^2), Q(3z^2 - R^2), three eigenvalues of traceless quadrupole moment tensor
    1 Pt     0.000000     0.000000     0.000000    -0.040872    -0.002813     0.000211    -0.114136     0.114171     0.005522     0.005946    -0.004413     0.003057     0.157119    -0.032515    -0.020512     0.053026
    2 Pt     2.805301     4.858922     0.000000    -0.034410     0.003647     0.000224    -0.105863     0.105926     0.000704     0.005057    -0.005058    -0.001811     0.165903    -0.029306    -0.026602     0.055908
    3 Pt     1.402649     2.429458     0.000000    -0.034668     0.000362    -0.002881    -0.122661     0.122695     0.001390     0.000955     0.002760    -0.009871     0.202860    -0.038941    -0.028768     0.067708
    4 Pt     2.805297     0.000000     0.000000    -0.037445     0.002746     0.000604    -0.111224     0.111260    -0.005543    -0.004937    -0.003714     0.006310     0.157670    -0.033037    -0.019977     0.053014
    5 Pt     5.610599     4.858922     0.000000    -0.029082    -0.000344    -0.003791    -0.099532     0.099605    -0.001420    -0.000239    -0.002295     0.001713     0.162016    -0.028715    -0.025355     0.054070
    6 Pt     4.207946     2.429458     0.000000    -0.025176     0.002687     0.003576    -0.105144     0.105239    -0.000085     0.003755    -0.001168    -0.002293     0.222048    -0.038281    -0.035873     0.074154
    7 Pt     5.610603     0.000000     0.000000    -0.033526     0.000013    -0.001023    -0.109848     0.109853     0.000040    -0.000874     0.011244     0.004919     0.177938    -0.033482    -0.027202     0.060684
    8 Pt     8.415904     4.858922     0.000000    -0.036847    -0.003280     0.000446    -0.105906     0.105958     0.000749    -0.004698    -0.003857    -0.000191     0.170815    -0.029240    -0.028132     0.057372
    9 Pt     7.013251     2.429458     0.000000    -0.023502    -0.003078     0.003381    -0.105782     0.105880    -0.001329    -0.004855    -0.000801    -0.004021     0.216420    -0.038695    -0.033664     0.072359
   10 Pt     4.207950     5.668742     2.290536     0.047936     0.000583     0.013593    -0.020967     0.024995    -0.006063    -0.009092     0.019487    -0.014780     0.048422    -0.018005    -0.013493     0.031498
   11 Pt     2.805301     3.239284     2.290536     0.053598    -0.017987    -0.011358    -0.021641     0.030346     0.005387    -0.025074    -0.007294     0.014019     0.060373    -0.019482    -0.018173     0.037655
   12 Pt     1.402649     0.809819     2.290536     0.076979     0.000110     0.001039     0.011144     0.011193     0.003124     0.001949     0.004703     0.008035     0.096393    -0.021432    -0.011230     0.032662
   13 Pt     7.013247     5.668742     2.290536     0.050812     0.000438     0.012804    -0.019011     0.022925     0.007659     0.010392     0.020594    -0.009601     0.056328    -0.018523    -0.015656     0.034180
   14 Pt     5.610599     3.239284     2.290536    -0.013865     0.000314     0.007578    -0.042803     0.043470    -0.000727     0.001097     0.000236    -0.005077     0.015932    -0.005413    -0.000016     0.005429
   15 Pt     4.207946     0.809819     2.290536     0.048876    -0.019813    -0.008871    -0.018593     0.028582     0.004016    -0.022304    -0.018460    -0.005271     0.072661    -0.026292    -0.014833     0.041125
   16 Pt     9.818553     5.668742     2.290536     0.084438    -0.000940    -0.002476     0.009067     0.009446    -0.001576    -0.001225    -0.001219     0.001051     0.112001    -0.020379    -0.017006     0.037385
   17 Pt     8.415904     3.239284     2.290536     0.057615     0.017616    -0.010049    -0.020737     0.029006    -0.004622     0.023898    -0.006094     0.018662     0.071407    -0.022328    -0.016543     0.038871
   18 Pt     7.013251     0.809819     2.290536     0.050090     0.019849    -0.008746    -0.019894     0.029432    -0.007105     0.020577    -0.016510    -0.003708     0.075709    -0.023213    -0.017089     0.040302
   19 Pt     5.610603     6.478568     4.581048    -0.025183    -0.000011    -0.007539     0.131358     0.131574     0.001222     0.001359    -0.070355    -0.013999     0.203413    -0.064481    -0.040779     0.105260
   20 Pt     4.207950     4.049103     4.581048     0.109436     0.028251     0.000400     0.103560     0.107345    -0.015599     0.104396    -0.025299     0.035521     0.245707    -0.087519    -0.062935     0.150453
   21 Pt     2.805297     1.619638     4.581048    -0.073622    -0.017203    -0.006148     0.085858     0.087780    -0.015402     0.023581     0.008462     0.007425     0.091264    -0.038105    -0.002942     0.041047
   22 Pt     8.415900     6.478568     4.581048    -0.083680     0.009248    -0.005679     0.103099     0.103668    -0.025468     0.004980    -0.007877     0.020360     0.167679    -0.055500    -0.001778     0.057278
   23 Pt     7.013247     4.049103     4.581048     0.106134    -0.029034     0.000765     0.105572     0.109494     0.016719    -0.102097    -0.025489     0.035014     0.244675    -0.085664    -0.062736     0.148400
   24 Pt     5.610603     1.619638     4.581048     0.058073    -0.000583    -0.019123    -0.057433     0.060536     0.000565     0.000237     0.070031    -0.059667     0.034772    -0.052495    -0.035629     0.088124
   25 Pt    11.221206     6.478568     4.581048    -0.081494    -0.009176    -0.006014     0.100785     0.101381     0.024258    -0.006353    -0.007964     0.022023     0.168126    -0.054759    -0.002954     0.057713
   26 Pt     9.818553     4.049103     4.581048    -0.099536     0.000227     0.006418     0.097940     0.098150    -0.001200    -0.000820     0.014729    -0.082119     0.132168    -0.063109     0.012225     0.050883
   27 Pt     8.415900     1.619638     4.581048    -0.073628     0.017773    -0.006452     0.084027     0.086128     0.014725    -0.024065     0.010660     0.010591     0.090862    -0.038707    -0.003051     0.041758
   28 C      5.605196     2.403890     6.507888    -0.095998    -0.000597     0.079094    -0.013815     0.080294     0.000147    -0.001607     0.007735    -0.075785     0.060509    -0.048017     0.015395     0.032622
   29 O      5.604358     3.780978     6.292176    -0.148808    -0.000200    -0.122474    -0.042139     0.129520    -0.000062     0.001118    -0.062192    -0.042866     0.058093    -0.046784    -0.031089     0.077873
   30 H      4.674561     2.078617     6.999888     0.123374    -0.045389    -0.011416     0.025723     0.053406    -0.002731    -0.005328    -0.004099    -0.005211    -0.013424    -0.009789     0.003287     0.006502
   31 H      6.534021     2.080920     7.005024     0.123982     0.045193    -0.011341     0.026076     0.053395     0.002846     0.005708    -0.003849    -0.005474    -0.013716    -0.010095     0.003553     0.006542
 
The sperically averaged electron density of each atom fit to a function of the form exp(a - br) for r >=rmin_cloud_penetration
atom number,atomic symbol, x, y, z, a, b, Rsquared where a and b are in atomic units and Rsquared is the squared correlation coefficient
    1 Pt     0.000000     0.000000     0.000000     0.622241     1.733357     0.999923
    2 Pt     2.805301     4.858922     0.000000     0.615156     1.731929     0.999931
    3 Pt     1.402649     2.429458     0.000000     0.613767     1.732195     0.999929
    4 Pt     2.805297     0.000000     0.000000     0.616410     1.732362     0.999928
    5 Pt     5.610599     4.858922     0.000000     0.611265     1.731736     0.999932
    6 Pt     4.207946     2.429458     0.000000     0.610351     1.732284     0.999930
    7 Pt     5.610603     0.000000     0.000000     0.613856     1.731938     0.999933
    8 Pt     8.415904     4.858922     0.000000     0.615905     1.731711     0.999935
    9 Pt     7.013251     2.429458     0.000000     0.605224     1.731918     0.999929
   10 Pt     4.207950     5.668742     2.290536     0.674142     1.754499     0.999996
   11 Pt     2.805301     3.239284     2.290536     0.668796     1.753845     0.999996
   12 Pt     1.402649     0.809819     2.290536     0.641121     1.751365     0.999996
   13 Pt     7.013247     5.668742     2.290536     0.675843     1.755084     0.999996
   14 Pt     5.610599     3.239284     2.290536     0.706983     1.756405     0.999994
   15 Pt     4.207946     0.809819     2.290536     0.663148     1.752365     0.999997
   16 Pt     9.818553     5.668742     2.290536     0.659116     1.752839     0.999996
   17 Pt     8.415904     3.239284     2.290536     0.670137     1.754299     0.999996
   18 Pt     7.013251     0.809819     2.290536     0.661225     1.752071     0.999998
   19 Pt     5.610603     6.478568     4.581048     0.696607     1.752660     0.999994
   20 Pt     4.207950     4.049103     4.581048     0.579425     1.759870     0.999972
   21 Pt     2.805297     1.619638     4.581048     0.747516     1.757389     0.999983
   22 Pt     8.415900     6.478568     4.581048     0.759847     1.756572     0.999978
   23 Pt     7.013247     4.049103     4.581048     0.583293     1.760490     0.999971
   24 Pt     5.610603     1.619638     4.581048     0.645651     1.767789     0.999974
   25 Pt    11.221206     6.478568     4.581048     0.758378     1.756403     0.999978
   26 Pt     9.818553     4.049103     4.581048     0.792337     1.756061     0.999991
   27 Pt     8.415900     1.619638     4.581048     0.750589     1.757718     0.999983
   28 C      5.605196     2.403890     6.507888    -1.056228     1.748234     0.999070
   29 O      5.604358     3.780978     6.292176    -1.485567     1.747676     0.999221
   30 H      4.674561     2.078617     6.999888    -3.458743     1.652866     0.998016
   31 H      6.534021     2.080920     7.005024    -3.466898     1.651713     0.998027
 
 2020/08/25  00:38:01
