   32
jmolscript: load "" {1 1 1} spacegroup "x,y,z" unitcell [{      8.415900     0.000000     0.000000 }, {      4.207950     7.288380     0.000000 }, {      0.000000     0.000000    24.000000 }]
Pt     0.000000     0.000000     0.000000    -0.042167
Pt     2.805301     4.858922     0.000000    -0.034884
Pt     1.402649     2.429458     0.000000    -0.037234
Pt     2.805297     0.000000     0.000000    -0.034034
Pt     5.610599     4.858922     0.000000    -0.032032
Pt     4.207946     2.429458     0.000000    -0.034689
Pt     5.610603     0.000000     0.000000    -0.030349
Pt     8.415904     4.858922     0.000000    -0.029886
Pt     7.013251     2.429458     0.000000    -0.039796
Pt     4.207950     5.668742     2.290536     0.077856
Pt     2.805301     3.239284     2.290536     0.068723
Pt     1.402649     0.809819     2.290536     0.072850
Pt     7.013247     5.668742     2.290536     0.041094
Pt     5.610599     3.239284     2.290536     0.079877
Pt     4.207946     0.809819     2.290536     0.040079
Pt     9.818553     5.668742     2.290536     0.030330
Pt     8.415904     3.239284     2.290536     0.069914
Pt     7.013251     0.809819     2.290536     0.076076
Pt     5.610603     6.478568     4.581048    -0.049997
Pt     4.207950     4.049103     4.581048    -0.078300
Pt     2.805297     1.619638     4.581048    -0.054165
Pt     8.415900     6.478568     4.581048     0.176633
Pt     7.013247     4.049103     4.581048    -0.101162
Pt     5.610603     1.619638     4.581048    -0.070515
Pt    11.221206     6.478568     4.581048    -0.066337
Pt     9.818553     4.049103     4.581048    -0.065763
Pt     8.415900     1.619638     4.581048    -0.054109
C      9.313574     4.930093     6.919728     0.406533
O      8.561891     5.934009     6.660744    -0.344391
O      8.821643     3.862295     7.566024    -0.391228
H     10.408331     5.016373     7.018008     0.074265
H      7.846299     3.840255     7.418304     0.376810
 
 Chargemol version 3.5 September 26, 2017.
See ddec.sourceforge.net for latest version.
 
Computational parameters:
Number of radial integration shells =    100
Cutoff radius (pm) =    500
Error in the integrated total number of electrons before renormalization (e) =    3.4826E-05
Charge convergence tolerance =    1.0000E-05
Minimum radius for electron cloud penetration fitting (pm) =    200
Minimum decay exponent for electron density of buried atom tails =   1.7500
Maximum decay exponent for electron density of buried atom tails =  2.5000
Number of iterations to convergence =      7
 
The following XYZ coordinates are in angstroms. The atomic dipoles and quadrupoles are in atomic units.
atom number, atomic symbol, x, y, z, net_charge, dipole_x, dipole_y, dipole_z, dipole_mag, Qxy, Qxz, Qyz,Q(x^2-y^2), Q(3z^2 - R^2), three eigenvalues of traceless quadrupole moment tensor
    1 Pt     0.000000     0.000000     0.000000    -0.042167     0.000027     0.001106    -0.114356     0.114362    -0.000127     0.000140    -0.001071    -0.002959     0.134328    -0.023873    -0.020921     0.044794
    2 Pt     2.805301     4.858922     0.000000    -0.034884    -0.001334     0.001942    -0.111283     0.111308     0.001580    -0.001956    -0.002653    -0.004433     0.158890    -0.029217    -0.023886     0.053104
    3 Pt     1.402649     2.429458     0.000000    -0.037234    -0.001057    -0.001571    -0.110235     0.110252     0.003915     0.001944     0.003059     0.000225     0.138140    -0.026950    -0.019297     0.046247
    4 Pt     2.805297     0.000000     0.000000    -0.034034     0.001439    -0.001390    -0.101916     0.101936    -0.001060     0.007142    -0.001251     0.006925     0.145211    -0.027823    -0.021334     0.049157
    5 Pt     5.610599     4.858922     0.000000    -0.032032    -0.001854     0.000013    -0.117270     0.117285    -0.001521     0.006324     0.001551    -0.007050     0.182411    -0.034685    -0.026563     0.061248
    6 Pt     4.207946     2.429458     0.000000    -0.034689    -0.001967     0.004133    -0.118492     0.118580     0.001273     0.004028    -0.010932     0.002994     0.185195    -0.034245    -0.028901     0.063146
    7 Pt     5.610603     0.000000     0.000000    -0.030349    -0.001904    -0.002543    -0.105397     0.105445     0.001265    -0.005398     0.000170     0.004176     0.163929    -0.029796    -0.025211     0.055006
    8 Pt     8.415904     4.858922     0.000000    -0.029886     0.001171     0.003437    -0.106123     0.106185     0.000250     0.000386     0.002614    -0.001669     0.192291    -0.032920    -0.031251     0.064170
    9 Pt     7.013251     2.429458     0.000000    -0.039796     0.000826    -0.000964    -0.112622     0.112629    -0.004970     0.000010     0.000015     0.002533     0.137012    -0.027964    -0.017707     0.045671
   10 Pt     4.207950     5.668742     2.290536     0.077856    -0.000568     0.001208     0.006280     0.006420    -0.000344     0.000908    -0.001330     0.005673     0.105014    -0.020389    -0.014665     0.035054
   11 Pt     2.805301     3.239284     2.290536     0.068723     0.002664    -0.002588     0.003106     0.004841    -0.005420     0.005980    -0.005699    -0.009794     0.107730    -0.025432    -0.011853     0.037285
   12 Pt     1.402649     0.809819     2.290536     0.072850     0.003444    -0.001359    -0.000236     0.003710     0.003799    -0.000998     0.002516     0.003969     0.097731    -0.020708    -0.012007     0.032715
   13 Pt     7.013247     5.668742     2.290536     0.041094    -0.015460    -0.011643    -0.022894     0.029978     0.000551    -0.023713    -0.015274    -0.002095     0.065823    -0.027184    -0.010981     0.038165
   14 Pt     5.610599     3.239284     2.290536     0.079877     0.002934    -0.000299     0.013910     0.014219     0.005126     0.001467     0.000662    -0.004707     0.112091    -0.024334    -0.013078     0.037412
   15 Pt     4.207946     0.809819     2.290536     0.040079    -0.000049     0.024616    -0.029126     0.038135    -0.001819    -0.000794     0.028579    -0.003491     0.058234    -0.026047    -0.011421     0.037468
   16 Pt     9.818553     5.668742     2.290536     0.030330     0.014023    -0.006338    -0.024643     0.029053     0.003293     0.024270    -0.011970    -0.003733     0.058132    -0.028686    -0.005932     0.034618
   17 Pt     8.415904     3.239284     2.290536     0.069914    -0.005022     0.001824    -0.003613     0.006450     0.000477    -0.004109    -0.002848     0.005402     0.106855    -0.020668    -0.015427     0.036095
   18 Pt     7.013251     0.809819     2.290536     0.076076    -0.002460    -0.001391     0.002687     0.003900    -0.002921     0.000363     0.003041     0.001350     0.102089    -0.020139    -0.014070     0.034209
   19 Pt     5.610603     6.478568     4.581048    -0.049997    -0.002834    -0.000014     0.109666     0.109703    -0.000908     0.047735     0.014875    -0.018370     0.159651    -0.057727    -0.018146     0.075873
   20 Pt     4.207950     4.049103     4.581048    -0.078300     0.009267    -0.009599     0.068182     0.069475     0.005280    -0.005680    -0.006658    -0.011778    -0.023357    -0.011774    -0.003093     0.014867
   21 Pt     2.805297     1.619638     4.581048    -0.054165    -0.001183     0.007014     0.118604     0.118817     0.009589     0.005567    -0.034207     0.015556     0.234617    -0.059651    -0.027375     0.087027
   22 Pt     8.415900     6.478568     4.581048     0.176633    -0.006047    -0.002141     0.134598     0.134751    -0.003590    -0.005295    -0.015050    -0.003755     0.444191    -0.078789    -0.070411     0.149200
   23 Pt     7.013247     4.049103     4.581048    -0.101162    -0.009164     0.010773     0.030309     0.033446     0.002787     0.024781     0.048229     0.007622    -0.185891    -0.086929     0.030252     0.056677
   24 Pt     5.610603     1.619638     4.581048    -0.070515    -0.004734     0.005598     0.096577     0.096855    -0.013651    -0.026201    -0.045075     0.012184     0.117997    -0.061531    -0.004766     0.066297
   25 Pt    11.221206     6.478568     4.581048    -0.066337     0.002738     0.010196     0.079072     0.079773    -0.001418    -0.045014     0.010162    -0.004659     0.076954    -0.044732    -0.011246     0.055978
   26 Pt     9.818553     4.049103     4.581048    -0.065763     0.015828    -0.037264    -0.020459     0.045362    -0.003319    -0.001372    -0.017237    -0.005303    -0.200196    -0.069582     0.029726     0.039856
   27 Pt     8.415900     1.619638     4.581048    -0.054109     0.006590    -0.006428     0.084876     0.085373     0.003703     0.022452    -0.005898     0.015715     0.047748    -0.022364    -0.009535     0.031899
   28 C      9.313574     4.930093     6.919728     0.406533    -0.065982    -0.022306     0.043183     0.081951     0.003805     0.010808     0.035714    -0.060385     0.226568    -0.068787    -0.020809     0.089596
   29 O      8.561891     5.934009     6.660744    -0.344391     0.031125     0.005275    -0.030558     0.043936    -0.065983     0.041760    -0.012850    -0.081937     0.275053    -0.127800     0.019223     0.108578
   30 O      8.821643     3.862295     7.566024    -0.391228     0.031807     0.050303    -0.015514     0.061504     0.071982    -0.030822    -0.023490     0.053290    -0.154871    -0.061060    -0.050684     0.111744
   31 H     10.408331     5.016373     7.018008     0.074265     0.083647     0.009552     0.019613     0.086445     0.000275     0.006491    -0.006549    -0.005912    -0.018041    -0.012006     0.002416     0.009589
   32 H      7.846299     3.840255     7.418304     0.376810    -0.036937    -0.007602     0.006365     0.038245     0.007124    -0.010988    -0.009436     0.010558    -0.017428    -0.014676    -0.004997     0.019674
 
The sperically averaged electron density of each atom fit to a function of the form exp(a - br) for r >=rmin_cloud_penetration
atom number,atomic symbol, x, y, z, a, b, Rsquared where a and b are in atomic units and Rsquared is the squared correlation coefficient
    1 Pt     0.000000     0.000000     0.000000     0.623830     1.733033     0.999929
    2 Pt     2.805301     4.858922     0.000000     0.612942     1.732117     0.999929
    3 Pt     1.402649     2.429458     0.000000     0.617225     1.731983     0.999934
    4 Pt     2.805297     0.000000     0.000000     0.615857     1.731620     0.999935
    5 Pt     5.610599     4.858922     0.000000     0.611101     1.732152     0.999929
    6 Pt     4.207946     2.429458     0.000000     0.616912     1.732462     0.999931
    7 Pt     5.610603     0.000000     0.000000     0.612050     1.731587     0.999934
    8 Pt     8.415904     4.858922     0.000000     0.610685     1.731261     0.999937
    9 Pt     7.013251     2.429458     0.000000     0.618614     1.732228     0.999931
   10 Pt     4.207950     5.668742     2.290536     0.647164     1.752072     0.999996
   11 Pt     2.805301     3.239284     2.290536     0.653421     1.752472     0.999997
   12 Pt     1.402649     0.809819     2.290536     0.658474     1.753164     0.999996
   13 Pt     7.013247     5.668742     2.290536     0.677722     1.754885     0.999995
   14 Pt     5.610599     3.239284     2.290536     0.642651     1.751387     0.999996
   15 Pt     4.207946     0.809819     2.290536     0.686734     1.756480     0.999995
   16 Pt     9.818553     5.668742     2.290536     0.680021     1.754522     0.999996
   17 Pt     8.415904     3.239284     2.290536     0.652581     1.752168     0.999996
   18 Pt     7.013251     0.809819     2.290536     0.650709     1.752069     0.999996
   19 Pt     5.610603     6.478568     4.581048     0.762173     1.759078     0.999983
   20 Pt     4.207950     4.049103     4.581048     0.815289     1.762792     0.999997
   21 Pt     2.805297     1.619638     4.581048     0.713729     1.754420     0.999968
   22 Pt     8.415900     6.478568     4.581048     0.546718     1.762415     0.999961
   23 Pt     7.013247     4.049103     4.581048     0.810707     1.766323     0.999982
   24 Pt     5.610603     1.619638     4.581048     0.815303     1.765789     0.999993
   25 Pt    11.221206     6.478568     4.581048     0.759235     1.762550     0.999991
   26 Pt     9.818553     4.049103     4.581048     0.702747     1.763045     0.999973
   27 Pt     8.415900     1.619638     4.581048     0.813697     1.767177     0.999993
   28 C      9.313574     4.930093     6.919728    -1.100429     1.815397     0.998211
   29 O      8.561891     5.934009     6.660744    -1.308980     1.758034     0.999625
   30 O      8.821643     3.862295     7.566024    -1.750311     1.751372     0.998630
   31 H     10.408331     5.016373     7.018008    -2.765821     1.742180     0.999883
   32 H      7.846299     3.840255     7.418304    -2.951808     1.817331     0.997730
 
 2020/08/25  02:55:47
