   32
jmolscript: load "" {1 1 1} spacegroup "x,y,z" unitcell [{      8.415900     0.000000     0.000000 }, {      4.207950     7.288380     0.000000 }, {      0.000000     0.000000    24.000000 }]
Pt     0.000000     0.000000     0.000000    -0.037880
Pt     2.805301     4.858922     0.000000    -0.034378
Pt     1.402649     2.429458     0.000000    -0.033445
Pt     2.805297     0.000000     0.000000    -0.033457
Pt     5.610599     4.858922     0.000000    -0.033622
Pt     4.207946     2.429458     0.000000    -0.035188
Pt     5.610603     0.000000     0.000000    -0.034390
Pt     8.415904     4.858922     0.000000    -0.035840
Pt     7.013251     2.429458     0.000000    -0.033630
Pt     4.207950     5.668742     2.290536     0.069158
Pt     2.805301     3.239284     2.290536     0.068969
Pt     1.402649     0.809819     2.290536     0.070102
Pt     7.013247     5.668742     2.290536     0.061971
Pt     5.610599     3.239284     2.290536     0.058202
Pt     4.207946     0.809819     2.290536     0.068931
Pt     9.818553     5.668742     2.290536     0.071642
Pt     8.415904     3.239284     2.290536     0.061926
Pt     7.013251     0.809819     2.290536     0.069097
Pt     5.610603     6.478568     4.581048    -0.040959
Pt     4.207950     4.049103     4.581048    -0.037874
Pt     2.805297     1.619638     4.581048    -0.043278
Pt     8.415900     6.478568     4.581048    -0.039155
Pt     7.013247     4.049103     4.581048     0.029597
Pt     5.610603     1.619638     4.581048    -0.041749
Pt    11.221206     6.478568     4.581048    -0.043449
Pt     9.818553     4.049103     4.581048    -0.043126
Pt     8.415900     1.619638     4.581048    -0.036956
C      7.013315     4.049074     7.898856    -0.593748
H      6.510700     3.142691     7.530864     0.145868
H      8.049552     4.066952     7.530864     0.145805
H      7.013264     4.049103     8.999280     0.165063
H      6.479662     4.937528     7.530840     0.145793
 
 Chargemol version 3.5 September 26, 2017.
See ddec.sourceforge.net for latest version.
 
Computational parameters:
Number of radial integration shells =    100
Cutoff radius (pm) =    500
Error in the integrated total number of electrons before renormalization (e) =    5.1607E-05
Charge convergence tolerance =    1.0000E-05
Minimum radius for electron cloud penetration fitting (pm) =    200
Minimum decay exponent for electron density of buried atom tails =   1.7500
Maximum decay exponent for electron density of buried atom tails =  2.5000
Number of iterations to convergence =      7
 
The following XYZ coordinates are in angstroms. The atomic dipoles and quadrupoles are in atomic units.
atom number, atomic symbol, x, y, z, net_charge, dipole_x, dipole_y, dipole_z, dipole_mag, Qxy, Qxz, Qyz,Q(x^2-y^2), Q(3z^2 - R^2), three eigenvalues of traceless quadrupole moment tensor
    1 Pt     0.000000     0.000000     0.000000    -0.037880    -0.000254    -0.000089    -0.117006     0.117006     0.000248    -0.000016    -0.000079     0.000293     0.152200    -0.025655    -0.025079     0.050734
    2 Pt     2.805301     4.858922     0.000000    -0.034378     0.000418     0.000085    -0.114056     0.114056     0.001423     0.000079    -0.001113    -0.002224     0.152640    -0.027250    -0.023646     0.050897
    3 Pt     1.402649     2.429458     0.000000    -0.033445     0.000222    -0.000266    -0.113589     0.113590     0.001196    -0.000588     0.001560    -0.001392     0.156068    -0.027416    -0.024642     0.052058
    4 Pt     2.805297     0.000000     0.000000    -0.033457     0.000009     0.000337    -0.113595     0.113596    -0.000006     0.000822    -0.001269     0.002782     0.156112    -0.027430    -0.024636     0.052066
    5 Pt     5.610599     4.858922     0.000000    -0.033622     0.000241    -0.000564    -0.111576     0.111578    -0.001272     0.000371    -0.001423    -0.001845     0.150536    -0.026662    -0.023546     0.050208
    6 Pt     4.207946     2.429458     0.000000    -0.035188    -0.000029     0.000030    -0.113025     0.113025     0.000240     0.001764     0.000886     0.000247     0.161325    -0.027158    -0.026666     0.053824
    7 Pt     5.610603     0.000000     0.000000    -0.034390     0.000263     0.000247    -0.114064     0.114064    -0.000244    -0.000856     0.000728     0.003604     0.152620    -0.027261    -0.023629     0.050890
    8 Pt     8.415904     4.858922     0.000000    -0.035840    -0.000564    -0.000328    -0.111662     0.111664    -0.000157    -0.000485    -0.000316    -0.000163     0.156555    -0.026273    -0.025916     0.052189
    9 Pt     7.013251     2.429458     0.000000    -0.033630    -0.000305     0.000462    -0.111585     0.111587    -0.001423    -0.001092     0.001028    -0.001305     0.150449    -0.026642    -0.023538     0.050180
   10 Pt     4.207950     5.668742     2.290536     0.069158     0.000301    -0.000262    -0.000388     0.000556     0.000322    -0.001043    -0.001478    -0.007196     0.101876    -0.020609    -0.013416     0.034025
   11 Pt     2.805301     3.239284     2.290536     0.068969    -0.000200     0.000526     0.002133     0.002206     0.000723    -0.000849     0.001046     0.002376     0.100044    -0.018095    -0.015289     0.033384
   12 Pt     1.402649     0.809819     2.290536     0.070102    -0.000214    -0.000241     0.000896     0.000952     0.001656     0.001474     0.000754     0.001834     0.103125    -0.019080    -0.015350     0.034430
   13 Pt     7.013247     5.668742     2.290536     0.061971     0.000871     0.002856    -0.005832     0.006552     0.001535     0.001087     0.005610    -0.000402     0.095841    -0.017719    -0.014911     0.032630
   14 Pt     5.610599     3.239284     2.290536     0.058202    -0.002827    -0.001718    -0.006205     0.007032    -0.001370    -0.004631    -0.002810    -0.001729     0.085406    -0.016505    -0.012616     0.029121
   15 Pt     4.207946     0.809819     2.290536     0.068931     0.000427    -0.000285     0.002129     0.002190     0.001398     0.000543    -0.001107     0.000256     0.100099    -0.018114    -0.015282     0.033396
   16 Pt     9.818553     5.668742     2.290536     0.071642    -0.001172    -0.000798     0.001207     0.001862    -0.001861    -0.000044    -0.000165    -0.002305     0.109199    -0.020389    -0.016011     0.036400
   17 Pt     8.415904     3.239284     2.290536     0.061926     0.003058    -0.000495    -0.005851     0.006620     0.000660     0.005548    -0.001659     0.002971     0.095848    -0.017783    -0.014870     0.032652
   18 Pt     7.013251     0.809819     2.290536     0.069097    -0.000184     0.000354    -0.000387     0.000555    -0.003086    -0.002062    -0.000152     0.004173     0.101945    -0.020739    -0.013330     0.034069
   19 Pt     5.610603     6.478568     4.581048    -0.040959    -0.004466     0.008591     0.103359     0.103811     0.007044     0.001434    -0.001823     0.006237     0.142682    -0.031551    -0.016078     0.047629
   20 Pt     4.207950     4.049103     4.581048    -0.037874    -0.007554    -0.001129     0.113905     0.114161    -0.000448     0.005777     0.001454    -0.009710     0.188033    -0.036559    -0.026478     0.063037
   21 Pt     2.805297     1.619638     4.581048    -0.043278     0.000668     0.000384     0.109655     0.109658    -0.000710    -0.000709    -0.000407    -0.000842     0.131210    -0.022704    -0.021043     0.043747
   22 Pt     8.415900     6.478568     4.581048    -0.039155     0.003437     0.007366     0.114430     0.114718    -0.004654    -0.002460    -0.006582     0.003614     0.187605    -0.036730    -0.026306     0.063036
   23 Pt     7.013247     4.049103     4.581048     0.029597    -0.000519    -0.000258     0.128071     0.128072     0.001249     0.001260     0.000686     0.001440     0.213154    -0.036968    -0.034103     0.071071
   24 Pt     5.610603     1.619638     4.581048    -0.041749    -0.005800    -0.007800     0.105374     0.105822    -0.005535     0.001533    -0.000235     0.005369     0.143920    -0.030143    -0.017865     0.048009
   25 Pt    11.221206     6.478568     4.581048    -0.043449     0.000060     0.000055     0.107758     0.107758    -0.001282    -0.001686    -0.001015    -0.001498     0.131067    -0.023387    -0.020360     0.043747
   26 Pt     9.818553     4.049103     4.581048    -0.043126     0.010175    -0.000635     0.105906     0.106396    -0.000766    -0.001696     0.001189    -0.012407     0.143841    -0.030258    -0.017748     0.048006
   27 Pt     8.415900     1.619638     4.581048    -0.036956     0.004070    -0.006377     0.111867     0.112122     0.005143    -0.003408     0.006701     0.007787     0.186494    -0.038097    -0.024632     0.062728
   28 C      7.013315     4.049074     7.898856    -0.593748     0.000359     0.000032     0.002641     0.002665    -0.001615     0.001441     0.001787    -0.000364    -0.088775    -0.029714     0.013290     0.016424
   29 H      6.510700     3.142691     7.530864     0.145868    -0.010511    -0.017946    -0.003665     0.021118     0.003224    -0.000106    -0.000206    -0.004297    -0.023169    -0.007726    -0.000013     0.007739
   30 H      8.049552     4.066952     7.530864     0.145805     0.020909     0.000450    -0.003964     0.021286    -0.000069     0.000326     0.000134     0.007558    -0.023067    -0.007698     0.000067     0.007631
   31 H      7.013264     4.049103     8.999280     0.165063    -0.000669    -0.000370     0.016047     0.016065     0.000163     0.000415     0.000229     0.000219     0.011216    -0.002066    -0.001714     0.003780
   32 H      6.479662     4.937528     7.530840     0.145793    -0.010168     0.017874    -0.004166     0.020982    -0.003355    -0.000200     0.000073    -0.003783    -0.023142    -0.007718     0.000008     0.007710
 
The sperically averaged electron density of each atom fit to a function of the form exp(a - br) for r >=rmin_cloud_penetration
atom number,atomic symbol, x, y, z, a, b, Rsquared where a and b are in atomic units and Rsquared is the squared correlation coefficient
    1 Pt     0.000000     0.000000     0.000000     0.627706     1.734778     0.999933
    2 Pt     2.805301     4.858922     0.000000     0.621239     1.733711     0.999938
    3 Pt     1.402649     2.429458     0.000000     0.620305     1.733653     0.999938
    4 Pt     2.805297     0.000000     0.000000     0.620362     1.733664     0.999938
    5 Pt     5.610599     4.858922     0.000000     0.621006     1.733575     0.999939
    6 Pt     4.207946     2.429458     0.000000     0.625600     1.734018     0.999938
    7 Pt     5.610603     0.000000     0.000000     0.621251     1.733710     0.999938
    8 Pt     8.415904     4.858922     0.000000     0.621619     1.733380     0.999941
    9 Pt     7.013251     2.429458     0.000000     0.621020     1.733577     0.999939
   10 Pt     4.207950     5.668742     2.290536     0.660066     1.753489     0.999996
   11 Pt     2.805301     3.239284     2.290536     0.659495     1.753520     0.999996
   12 Pt     1.402649     0.809819     2.290536     0.657731     1.753224     0.999996
   13 Pt     7.013247     5.668742     2.290536     0.667944     1.754723     0.999996
   14 Pt     5.610599     3.239284     2.290536     0.669127     1.754618     0.999996
   15 Pt     4.207946     0.809819     2.290536     0.659535     1.753525     0.999996
   16 Pt     9.818553     5.668742     2.290536     0.661682     1.754046     0.999996
   17 Pt     8.415904     3.239284     2.290536     0.667966     1.754720     0.999996
   18 Pt     7.013251     0.809819     2.290536     0.660096     1.753490     0.999996
   19 Pt     5.610603     6.478568     4.581048     0.734557     1.759524     0.999979
   20 Pt     4.207950     4.049103     4.581048     0.726898     1.757805     0.999984
   21 Pt     2.805297     1.619638     4.581048     0.765819     1.759403     0.999988
   22 Pt     8.415900     6.478568     4.581048     0.730167     1.758614     0.999982
   23 Pt     7.013247     4.049103     4.581048     0.681228     1.765778     0.999971
   24 Pt     5.610603     1.619638     4.581048     0.729616     1.758423     0.999979
   25 Pt    11.221206     6.478568     4.581048     0.775055     1.760748     0.999984
   26 Pt     9.818553     4.049103     4.581048     0.734601     1.759404     0.999978
   27 Pt     8.415900     1.619638     4.581048     0.728100     1.758412     0.999981
   28 C      7.013315     4.049074     7.898856    -0.988814     1.738300     0.999491
   29 H      6.510700     3.142691     7.530864    -2.741856     1.784573     0.999818
   30 H      8.049552     4.066952     7.530864    -2.746938     1.783714     0.999806
   31 H      7.013264     4.049103     8.999280    -4.103403     1.766800     0.977111
   32 H      6.479662     4.937528     7.530840    -2.744733     1.784064     0.999807
 
 2020/08/24  03:18:39
