   31
jmolscript: load "" {1 1 1} spacegroup "x,y,z" unitcell [{      8.415900     0.000000     0.000000 }, {      4.207950     7.288380     0.000000 }, {      0.000000     0.000000    24.000000 }]
Pt     0.000000     0.000000     0.000000    -0.027182
Pt     2.805301     4.858922     0.000000    -0.035023
Pt     1.402649     2.429458     0.000000    -0.040756
Pt     2.805297     0.000000     0.000000    -0.023828
Pt     5.610599     4.858922     0.000000    -0.023725
Pt     4.207946     2.429458     0.000000    -0.036656
Pt     5.610603     0.000000     0.000000    -0.034235
Pt     8.415904     4.858922     0.000000    -0.026154
Pt     7.013251     2.429458     0.000000    -0.023738
Pt     4.207950     5.668742     2.290536     0.041521
Pt     2.805301     3.239284     2.290536     0.070860
Pt     1.402649     0.809819     2.290536     0.037581
Pt     7.013247     5.668742     2.290536     0.022810
Pt     5.610599     3.239284     2.290536     0.040560
Pt     4.207946     0.809819     2.290536     0.067983
Pt     9.818553     5.668742     2.290536     0.072283
Pt     8.415904     3.239284     2.290536     0.040107
Pt     7.013251     0.809819     2.290536     0.063455
Pt     5.610603     6.478568     4.581048     0.015747
Pt     4.207950     4.049103     4.581048    -0.054502
Pt     2.805297     1.619638     4.581048    -0.029787
Pt     8.415900     6.478568     4.581048    -0.056709
Pt     7.013247     4.049103     4.581048     0.010224
Pt     5.610603     1.619638     4.581048    -0.034284
Pt    11.221206     6.478568     4.581048    -0.036900
Pt     9.818553     4.049103     4.581048    -0.034288
Pt     8.415900     1.619638     4.581048    -0.010874
C      5.943317     5.994634     6.504528     0.203487
C      6.723711     4.564778     6.505944     0.205605
O      5.661241     6.589031     7.502112    -0.181551
O      7.030609     3.987910     7.506624    -0.182031
 
 Chargemol version 3.5 September 26, 2017.
See ddec.sourceforge.net for latest version.
 
Computational parameters:
Number of radial integration shells =    100
Cutoff radius (pm) =    500
Error in the integrated total number of electrons before renormalization (e) =    1.2011E-03
Charge convergence tolerance =    1.0000E-05
Minimum radius for electron cloud penetration fitting (pm) =    200
Minimum decay exponent for electron density of buried atom tails =   1.7500
Maximum decay exponent for electron density of buried atom tails =  2.5000
Number of iterations to convergence =      7
 
The following XYZ coordinates are in angstroms. The atomic dipoles and quadrupoles are in atomic units.
atom number, atomic symbol, x, y, z, net_charge, dipole_x, dipole_y, dipole_z, dipole_mag, Qxy, Qxz, Qyz,Q(x^2-y^2), Q(3z^2 - R^2), three eigenvalues of traceless quadrupole moment tensor
    1 Pt     0.000000     0.000000     0.000000    -0.027182    -0.000694     0.000279    -0.120067     0.120069     0.002356     0.006308    -0.002416     0.003687     0.220501    -0.039963    -0.033949     0.073912
    2 Pt     2.805301     4.858922     0.000000    -0.035023     0.001805     0.000781    -0.114979     0.114996    -0.000431    -0.002235    -0.005144    -0.007266     0.155649    -0.029682    -0.022615     0.052297
    3 Pt     1.402649     2.429458     0.000000    -0.040756    -0.001516    -0.001192    -0.107571     0.107588     0.003658     0.006976     0.003509     0.000733     0.126817    -0.024885    -0.018383     0.043269
    4 Pt     2.805297     0.000000     0.000000    -0.023828     0.000991     0.000608    -0.115302     0.115308    -0.000056    -0.007608    -0.001218     0.005064     0.207175    -0.037080    -0.032562     0.069642
    5 Pt     5.610599     4.858922     0.000000    -0.023725    -0.000881    -0.000504    -0.112714     0.112719    -0.001281     0.004373     0.001453    -0.001459     0.223175    -0.038850    -0.035729     0.074579
    6 Pt     4.207946     2.429458     0.000000    -0.036656     0.001332     0.000682    -0.114503     0.114512    -0.003268    -0.004265    -0.000096    -0.000425     0.161102    -0.030247    -0.023678     0.053925
    7 Pt     5.610603     0.000000     0.000000    -0.034235     0.000262     0.000523    -0.118251     0.118253    -0.001705    -0.002233     0.000158     0.001375     0.185192    -0.032717    -0.029069     0.061785
    8 Pt     8.415904     4.858922     0.000000    -0.026154     0.000842     0.000887    -0.115454     0.115460     0.000697    -0.006124    -0.006545    -0.000990     0.212583    -0.036376    -0.035241     0.071617
    9 Pt     7.013251     2.429458     0.000000    -0.023738    -0.000481    -0.000989    -0.117034     0.117040     0.001302    -0.000026     0.007088     0.000489     0.219716    -0.038230    -0.035463     0.073693
   10 Pt     4.207950     5.668742     2.290536     0.041521    -0.013403    -0.012136    -0.021316     0.027951    -0.000504    -0.015302    -0.009553    -0.007956     0.081041    -0.023144    -0.010498     0.033642
   11 Pt     2.805301     3.239284     2.290536     0.070860     0.001076     0.000849     0.002547     0.002892     0.004848     0.000936     0.001619     0.003732     0.083282    -0.019088    -0.008764     0.027852
   12 Pt     1.402649     0.809819     2.290536     0.037581     0.000450     0.021358    -0.025265     0.033086    -0.002000     0.002453     0.019835    -0.001154     0.077220    -0.021710    -0.012538     0.034247
   13 Pt     7.013247     5.668742     2.290536     0.022810     0.009672     0.004239    -0.023018     0.025325     0.004577     0.012058     0.005173     0.001315     0.098783    -0.021504    -0.014937     0.036440
   14 Pt     5.610599     3.239284     2.290536     0.040560    -0.016481    -0.005236    -0.019840     0.026319    -0.001279    -0.012506    -0.008572    -0.001318     0.078520    -0.019548    -0.011653     0.031201
   15 Pt     4.207946     0.809819     2.290536     0.067983     0.000399    -0.001628    -0.000200     0.001688     0.002605     0.003283    -0.000843    -0.003946     0.080765    -0.016980    -0.010205     0.027185
   16 Pt     9.818553     5.668742     2.290536     0.072283    -0.001928     0.000432     0.000696     0.002095    -0.002876     0.000604     0.001952     0.005717     0.091923    -0.019458    -0.011266     0.030724
   17 Pt     8.415904     3.239284     2.290536     0.040107     0.018707    -0.009260    -0.023538     0.031460    -0.004722     0.016608    -0.007420    -0.002640     0.085422    -0.021719    -0.013823     0.035542
   18 Pt     7.013251     0.809819     2.290536     0.063455     0.000041     0.000018    -0.004733     0.004733    -0.001972    -0.005305    -0.000926     0.004785     0.080262    -0.016655    -0.010840     0.027495
   19 Pt     5.610603     6.478568     4.581048     0.015747    -0.021217     0.029713    -0.119474     0.124929    -0.011385     0.001256    -0.003046    -0.014740    -0.041753    -0.014243    -0.006588     0.020830
   20 Pt     4.207950     4.049103     4.581048    -0.054502    -0.007864    -0.005188     0.107762     0.108173    -0.002973     0.008157     0.004913    -0.000690     0.188690    -0.035336    -0.028485     0.063821
   21 Pt     2.805297     1.619638     4.581048    -0.029787     0.001125     0.002545     0.134041     0.134070     0.000935    -0.010448    -0.012829     0.001045     0.260790    -0.045237    -0.043772     0.089009
   22 Pt     8.415900     6.478568     4.581048    -0.056709     0.009714     0.005712     0.106013     0.106611     0.002153    -0.002798    -0.002044    -0.000552     0.178599    -0.031943    -0.027727     0.059670
   23 Pt     7.013247     4.049103     4.581048     0.010224     0.017662    -0.033645    -0.119146     0.125059    -0.009757    -0.000857    -0.001629    -0.015785    -0.054146    -0.018227    -0.003377     0.021605
   24 Pt     5.610603     1.619638     4.581048    -0.034284    -0.000793    -0.002995     0.130690     0.130727    -0.000735     0.014455     0.007708    -0.002704     0.243647    -0.044213    -0.039144     0.083357
   25 Pt    11.221206     6.478568     4.581048    -0.036900    -0.004390     0.001193     0.127228     0.127309    -0.002125     0.010946     0.007499    -0.004701     0.239487    -0.044438    -0.036811     0.081249
   26 Pt     9.818553     4.049103     4.581048    -0.034288     0.003432    -0.000512     0.132941     0.132986     0.001373    -0.015271    -0.002394     0.003131     0.255669    -0.044822    -0.042270     0.087093
   27 Pt     8.415900     1.619638     4.581048    -0.010874    -0.000612     0.000003     0.150470     0.150471    -0.002233    -0.004798    -0.000960    -0.000039     0.326494    -0.056751    -0.052227     0.108977
   28 C      5.943317     5.994634     6.504528     0.203487    -0.000647     0.002788     0.055073     0.055147     0.097087     0.009574    -0.046648     0.129371    -0.323169    -0.136566    -0.034640     0.171206
   29 C      6.723711     4.564778     6.505944     0.205605     0.001132    -0.001879     0.053041     0.053087     0.098036    -0.019576     0.040252     0.130316    -0.320444    -0.135086    -0.036047     0.171133
   30 O      5.661241     6.589031     7.502112    -0.181551     0.016567    -0.032975    -0.038279     0.053170     0.049793    -0.006230     0.003044     0.064888    -0.118098    -0.045268    -0.033983     0.079251
   31 O      7.030609     3.987910     7.506624    -0.182031    -0.016785     0.031240    -0.037631     0.051709     0.050438     0.003180    -0.002397     0.066894    -0.120022    -0.043897    -0.036650     0.080547
 
The sperically averaged electron density of each atom fit to a function of the form exp(a - br) for r >=rmin_cloud_penetration
atom number,atomic symbol, x, y, z, a, b, Rsquared where a and b are in atomic units and Rsquared is the squared correlation coefficient
    1 Pt     0.000000     0.000000     0.000000     0.622767     1.736234     0.999930
    2 Pt     2.805301     4.858922     0.000000     0.625879     1.735603     0.999933
    3 Pt     1.402649     2.429458     0.000000     0.631527     1.735645     0.999935
    4 Pt     2.805297     0.000000     0.000000     0.618317     1.735465     0.999934
    5 Pt     5.610599     4.858922     0.000000     0.618026     1.735412     0.999934
    6 Pt     4.207946     2.429458     0.000000     0.630653     1.735872     0.999934
    7 Pt     5.610603     0.000000     0.000000     0.622539     1.735534     0.999931
    8 Pt     8.415904     4.858922     0.000000     0.619551     1.735363     0.999937
    9 Pt     7.013251     2.429458     0.000000     0.616312     1.735244     0.999934
   10 Pt     4.207950     5.668742     2.290536     0.667703     1.753109     0.999997
   11 Pt     2.805301     3.239284     2.290536     0.657870     1.753937     0.999996
   12 Pt     1.402649     0.809819     2.290536     0.667499     1.752773     0.999998
   13 Pt     7.013247     5.668742     2.290536     0.673028     1.753357     0.999997
   14 Pt     5.610599     3.239284     2.290536     0.669841     1.753507     0.999997
   15 Pt     4.207946     0.809819     2.290536     0.664798     1.754641     0.999996
   16 Pt     9.818553     5.668742     2.290536     0.664783     1.754882     0.999997
   17 Pt     8.415904     3.239284     2.290536     0.674325     1.754141     0.999998
   18 Pt     7.013251     0.809819     2.290536     0.671630     1.755255     0.999996
   19 Pt     5.610603     6.478568     4.581048     0.617332     1.762614     0.999973
   20 Pt     4.207950     4.049103     4.581048     0.727808     1.762242     0.999964
   21 Pt     2.805297     1.619638     4.581048     0.759657     1.768290     0.999987
   22 Pt     8.415900     6.478568     4.581048     0.725516     1.762142     0.999965
   23 Pt     7.013247     4.049103     4.581048     0.617748     1.762484     0.999971
   24 Pt     5.610603     1.619638     4.581048     0.766561     1.768690     0.999988
   25 Pt    11.221206     6.478568     4.581048     0.770127     1.768913     0.999987
   26 Pt     9.818553     4.049103     4.581048     0.767947     1.769143     0.999985
   27 Pt     8.415900     1.619638     4.581048     0.709573     1.764335     0.999975
   28 C      5.943317     5.994634     6.504528    -0.585179     1.844770     0.999803
   29 C      6.723711     4.564778     6.505944    -0.588491     1.844486     0.999792
   30 O      5.661241     6.589031     7.502112    -1.809953     1.777210     0.998600
   31 O      7.030609     3.987910     7.506624    -1.812331     1.776778     0.998616
 
 2020/09/05  04:15:25
