   30
jmolscript: load "" {1 1 1} spacegroup "x,y,z" unitcell [{      8.415900     0.000000     0.000000 }, {      4.207950     7.288380     0.000000 }, {      0.000000     0.000000    24.000000 }]
Pt     0.000000     0.000000     0.000000    -0.029837
Pt     2.805301     4.858922     0.000000    -0.027294
Pt     1.402649     2.429458     0.000000    -0.055316
Pt     2.805297     0.000000     0.000000    -0.024665
Pt     5.610599     4.858922     0.000000    -0.026691
Pt     4.207946     2.429458     0.000000    -0.033072
Pt     5.610603     0.000000     0.000000    -0.046818
Pt     8.415904     4.858922     0.000000    -0.032176
Pt     7.013251     2.429458     0.000000    -0.029944
Pt     4.207950     5.668742     2.290536     0.007382
Pt     2.805301     3.239284     2.290536     0.056343
Pt     1.402649     0.809819     2.290536     0.038508
Pt     7.013247     5.668742     2.290536     0.008618
Pt     5.610599     3.239284     2.290536     0.027200
Pt     4.207946     0.809819     2.290536     0.079823
Pt     9.818553     5.668742     2.290536     0.083160
Pt     8.415904     3.239284     2.290536     0.059598
Pt     7.013251     0.809819     2.290536     0.080503
Pt     5.610603     6.478568     4.581048     0.173819
Pt     4.207950     4.049103     4.581048     0.081348
Pt     2.805297     1.619638     4.581048    -0.094595
Pt     8.415900     6.478568     4.581048    -0.068150
Pt     7.013247     4.049103     4.581048     0.078152
Pt     5.610603     1.619638     4.581048    -0.057325
Pt    11.221206     6.478568     4.581048    -0.066476
Pt     9.818553     4.049103     4.581048    -0.089051
Pt     8.415900     1.619638     4.581048    -0.095056
C      5.620403     4.727046     5.840856    -0.089853
C      5.518714     5.889368     6.499584    -0.121459
H      5.392458     6.369410     7.462944     0.213323
 
 Chargemol version 3.5 September 26, 2017.
See ddec.sourceforge.net for latest version.
 
Computational parameters:
Number of radial integration shells =    100
Cutoff radius (pm) =    500
Error in the integrated total number of electrons before renormalization (e) =    1.3819E-05
Charge convergence tolerance =    1.0000E-05
Minimum radius for electron cloud penetration fitting (pm) =    200
Minimum decay exponent for electron density of buried atom tails =   1.7500
Maximum decay exponent for electron density of buried atom tails =  2.5000
Number of iterations to convergence =      7
 
The following XYZ coordinates are in angstroms. The atomic dipoles and quadrupoles are in atomic units.
atom number, atomic symbol, x, y, z, net_charge, dipole_x, dipole_y, dipole_z, dipole_mag, Qxy, Qxz, Qyz,Q(x^2-y^2), Q(3z^2 - R^2), three eigenvalues of traceless quadrupole moment tensor
    1 Pt     0.000000     0.000000     0.000000    -0.029837     0.001636    -0.002859    -0.110550     0.110599     0.000957     0.006534    -0.004150     0.006470     0.200614    -0.037066    -0.030402     0.067469
    2 Pt     2.805301     4.858922     0.000000    -0.027294     0.003066    -0.000744    -0.111856     0.111900    -0.001921     0.005539    -0.001525    -0.009479     0.207605    -0.039959    -0.029551     0.069510
    3 Pt     1.402649     2.429458     0.000000    -0.055316     0.000450     0.000900    -0.106790     0.106795     0.001219     0.000959    -0.004968     0.002062     0.099382    -0.018630    -0.014994     0.033624
    4 Pt     2.805297     0.000000     0.000000    -0.024665    -0.001617    -0.002644    -0.108013     0.108058    -0.001301    -0.006280    -0.003257     0.008337     0.201754    -0.038163    -0.029590     0.067752
    5 Pt     5.610599     4.858922     0.000000    -0.026691    -0.000206    -0.000026    -0.098934     0.098935    -0.001458    -0.000185     0.003657    -0.004434     0.221868    -0.039638    -0.034441     0.074079
    6 Pt     4.207946     2.429458     0.000000    -0.033072     0.000962     0.002167    -0.109468     0.109493    -0.004492     0.000224     0.004714    -0.001914     0.180015    -0.034701    -0.025553     0.060254
    7 Pt     5.610603     0.000000     0.000000    -0.046818     0.000196     0.001499    -0.110469     0.110479    -0.000250    -0.000879    -0.000839     0.000518     0.141781    -0.024008    -0.023273     0.047281
    8 Pt     8.415904     4.858922     0.000000    -0.032176    -0.003856     0.000146    -0.109384     0.109453     0.003394    -0.003479    -0.001712    -0.007586     0.194897    -0.037641    -0.027480     0.065121
    9 Pt     7.013251     2.429458     0.000000    -0.029944    -0.001147     0.001874    -0.110758     0.110780     0.002947    -0.001263     0.005396    -0.003846     0.179518    -0.033587    -0.026595     0.060182
   10 Pt     4.207950     5.668742     2.290536     0.007382    -0.016764    -0.002664    -0.040223     0.043658    -0.007203    -0.028873     0.000172     0.001763     0.042359    -0.028298    -0.006714     0.035013
   11 Pt     2.805301     3.239284     2.290536     0.056343    -0.021414    -0.015307    -0.023466     0.035264     0.010270    -0.027953    -0.013819     0.001970     0.056273    -0.026065    -0.015832     0.041897
   12 Pt     1.402649     0.809819     2.290536     0.038508    -0.000429     0.038933    -0.039085     0.055169     0.003008     0.001976     0.046334    -0.006118     0.041253    -0.042226    -0.010090     0.052316
   13 Pt     7.013247     5.668742     2.290536     0.008618     0.018895    -0.004149    -0.039843     0.044291     0.008532     0.031553     0.000553     0.006167     0.047185    -0.030024    -0.009228     0.039253
   14 Pt     5.610599     3.239284     2.290536     0.027200     0.000118    -0.004425    -0.021998     0.022439    -0.000711     0.001204    -0.017323    -0.010489     0.056512    -0.014712    -0.013461     0.028173
   15 Pt     4.207946     0.809819     2.290536     0.079823    -0.003384     0.000156     0.003588     0.004935     0.002996     0.000539     0.000244    -0.004001     0.089554    -0.018531    -0.011328     0.029859
   16 Pt     9.818553     5.668742     2.290536     0.083160    -0.001388    -0.000975     0.005951     0.006188    -0.001496    -0.001608    -0.000664     0.013641     0.099713    -0.023613    -0.009691     0.033304
   17 Pt     8.415904     3.239284     2.290536     0.059598     0.022770    -0.014421    -0.024607     0.036495    -0.010172     0.026889    -0.013115     0.007161     0.066794    -0.024246    -0.018572     0.042818
   18 Pt     7.013251     0.809819     2.290536     0.080503     0.003396     0.000448     0.002022     0.003978    -0.006262    -0.002911     0.002440    -0.001578     0.092641    -0.021758    -0.009478     0.031236
   19 Pt     5.610603     6.478568     4.581048     0.173819     0.004184    -0.042788    -0.043710     0.061309     0.003524    -0.000653    -0.134757    -0.050162     0.137364    -0.112601    -0.047933     0.160534
   20 Pt     4.207950     4.049103     4.581048     0.081348    -0.014380    -0.003929     0.005031     0.015733     0.021955     0.076731     0.044961     0.031583    -0.030534    -0.080564    -0.021769     0.102332
   21 Pt     2.805297     1.619638     4.581048    -0.094595    -0.004169     0.005674     0.100918     0.101163    -0.032608    -0.000811    -0.009541     0.038686     0.137003    -0.061454     0.014577     0.046877
   22 Pt     8.415900     6.478568     4.581048    -0.068150     0.009932     0.005008     0.103726     0.104321     0.004652    -0.021122    -0.010847     0.000199     0.097312    -0.024076    -0.018619     0.042695
   23 Pt     7.013247     4.049103     4.581048     0.078152     0.017581    -0.010199    -0.006221     0.021256    -0.019600    -0.078115     0.044794     0.031942    -0.058379    -0.086482    -0.015260     0.101743
   24 Pt     5.610603     1.619638     4.581048    -0.057325    -0.000446     0.002641     0.104441     0.104476     0.002460     0.000487     0.032259    -0.018998     0.061823    -0.024692    -0.019252     0.043943
   25 Pt    11.221206     6.478568     4.581048    -0.066476    -0.010427     0.004527     0.094501     0.095182    -0.003644     0.016477    -0.009408     0.003147     0.074431    -0.017282    -0.016126     0.033408
   26 Pt     9.818553     4.049103     4.581048    -0.089051    -0.000164    -0.008046     0.104438     0.104748    -0.001542    -0.001850     0.001699    -0.068671     0.115372    -0.053634     0.015013     0.038622
   27 Pt     8.415900     1.619638     4.581048    -0.095056     0.004970     0.006328     0.098295     0.098624     0.030434     0.001472    -0.007980     0.039911     0.132704    -0.059087     0.014074     0.045013
   28 C      5.620403     4.727046     5.840856    -0.089853     0.001776    -0.027835     0.072985     0.078133     0.012892     0.003832    -0.122013     0.002322     0.239777    -0.118902    -0.036763     0.155666
   29 C      5.518714     5.889368     6.499584    -0.121459     0.005696    -0.014877     0.036397     0.039731     0.015636     0.027274    -0.076327     0.202787    -0.146265    -0.143739     0.013716     0.130023
   30 H      5.392458     6.369410     7.462944     0.213323    -0.007141     0.025666     0.053129     0.059434    -0.001797    -0.002269     0.011397    -0.017116     0.031761    -0.014106    -0.005044     0.019150
 
The sperically averaged electron density of each atom fit to a function of the form exp(a - br) for r >=rmin_cloud_penetration
atom number,atomic symbol, x, y, z, a, b, Rsquared where a and b are in atomic units and Rsquared is the squared correlation coefficient
    1 Pt     0.000000     0.000000     0.000000     0.612497     1.732680     0.999923
    2 Pt     2.805301     4.858922     0.000000     0.605988     1.731653     0.999927
    3 Pt     1.402649     2.429458     0.000000     0.627060     1.731553     0.999931
    4 Pt     2.805297     0.000000     0.000000     0.604729     1.731563     0.999929
    5 Pt     5.610599     4.858922     0.000000     0.607118     1.731660     0.999928
    6 Pt     4.207946     2.429458     0.000000     0.613460     1.732062     0.999928
    7 Pt     5.610603     0.000000     0.000000     0.621228     1.732061     0.999929
    8 Pt     8.415904     4.858922     0.000000     0.608760     1.731538     0.999930
    9 Pt     7.013251     2.429458     0.000000     0.607221     1.731656     0.999928
   10 Pt     4.207950     5.668742     2.290536     0.680947     1.753449     0.999996
   11 Pt     2.805301     3.239284     2.290536     0.653967     1.751428     0.999997
   12 Pt     1.402649     0.809819     2.290536     0.662782     1.751959     0.999998
   13 Pt     7.013247     5.668742     2.290536     0.680758     1.753436     0.999996
   14 Pt     5.610599     3.239284     2.290536     0.677039     1.754370     0.999994
   15 Pt     4.207946     0.809819     2.290536     0.653991     1.752594     0.999996
   16 Pt     9.818553     5.668742     2.290536     0.654587     1.752990     0.999996
   17 Pt     8.415904     3.239284     2.290536     0.656642     1.752036     0.999998
   18 Pt     7.013251     0.809819     2.290536     0.652200     1.752234     0.999996
   19 Pt     5.610603     6.478568     4.581048     0.574436     1.763364     0.999954
   20 Pt     4.207950     4.049103     4.581048     0.592065     1.751835     0.999944
   21 Pt     2.805297     1.619638     4.581048     0.738357     1.746872     0.999984
   22 Pt     8.415900     6.478568     4.581048     0.698672     1.743922     0.999985
   23 Pt     7.013247     4.049103     4.581048     0.589269     1.752185     0.999938
   24 Pt     5.610603     1.619638     4.581048     0.692452     1.741515     0.999991
   25 Pt    11.221206     6.478568     4.581048     0.707976     1.746475     0.999983
   26 Pt     9.818553     4.049103     4.581048     0.707244     1.739523     0.999991
   27 Pt     8.415900     1.619638     4.581048     0.741462     1.747386     0.999986
   28 C      5.620403     4.727046     5.840856    -0.741958     1.721958     0.999810
   29 C      5.518714     5.889368     6.499584    -1.085210     1.704752     0.999129
   30 H      5.392458     6.369410     7.462944    -5.107695     1.443769     0.982946
 
 2020/09/05  13:27:13
