   31
jmolscript: load "" {1 1 1} spacegroup "x,y,z" unitcell [{      8.415900     0.000000     0.000000 }, {      4.207950     7.288380     0.000000 }, {      0.000000     0.000000    24.000000 }]
Pt     0.000000     0.000000     0.000000    -0.044934
Pt     2.805301     4.858922     0.000000    -0.036356
Pt     1.402649     2.429458     0.000000    -0.032832
Pt     2.805297     0.000000     0.000000    -0.049822
Pt     5.610599     4.858922     0.000000    -0.023500
Pt     4.207946     2.429458     0.000000    -0.027078
Pt     5.610603     0.000000     0.000000    -0.024446
Pt     8.415904     4.858922     0.000000    -0.031104
Pt     7.013251     2.429458     0.000000    -0.025072
Pt     4.207950     5.668742     2.290536     0.068740
Pt     2.805301     3.239284     2.290536     0.072745
Pt     1.402649     0.809819     2.290536     0.078768
Pt     7.013247     5.668742     2.290536     0.044511
Pt     5.610599     3.239284     2.290536     0.001512
Pt     4.207946     0.809819     2.290536     0.041499
Pt     9.818553     5.668742     2.290536     0.085042
Pt     8.415904     3.239284     2.290536     0.033314
Pt     7.013251     0.809819     2.290536     0.020043
Pt     5.610603     6.478568     4.581048    -0.073337
Pt     4.207950     4.049103     4.581048    -0.071193
Pt     2.805297     1.619638     4.581048    -0.128376
Pt     8.415900     6.478568     4.581048    -0.089608
Pt     7.013247     4.049103     4.581048     0.143957
Pt     5.610603     1.619638     4.581048     0.132367
Pt    11.221206     6.478568     4.581048    -0.075978
Pt     9.818553     4.049103     4.581048    -0.096450
Pt     8.415900     1.619638     4.581048     0.043723
C      6.742849     2.685017     5.930400    -0.224803
C      5.357103     2.897386     6.222336     0.216252
O      4.721248     2.801252     7.384080    -0.298468
H      3.755162     2.870638     7.205064     0.370883
 
 Chargemol version 3.5 September 26, 2017.
See ddec.sourceforge.net for latest version.
 
Computational parameters:
Number of radial integration shells =    100
Cutoff radius (pm) =    500
Error in the integrated total number of electrons before renormalization (e) =    5.0528E-05
Charge convergence tolerance =    1.0000E-05
Minimum radius for electron cloud penetration fitting (pm) =    200
Minimum decay exponent for electron density of buried atom tails =   1.7500
Maximum decay exponent for electron density of buried atom tails =  2.5000
Number of iterations to convergence =      7
 
The following XYZ coordinates are in angstroms. The atomic dipoles and quadrupoles are in atomic units.
atom number, atomic symbol, x, y, z, net_charge, dipole_x, dipole_y, dipole_z, dipole_mag, Qxy, Qxz, Qyz,Q(x^2-y^2), Q(3z^2 - R^2), three eigenvalues of traceless quadrupole moment tensor
    1 Pt     0.000000     0.000000     0.000000    -0.044934    -0.004248     0.002713    -0.108768     0.108885     0.004625     0.008052     0.005015    -0.004235     0.128130    -0.026707    -0.017453     0.044160
    2 Pt     2.805301     4.858922     0.000000    -0.036356    -0.000367     0.000260    -0.114819     0.114819     0.002509     0.005109    -0.002516     0.000203     0.180667    -0.032933    -0.027640     0.060573
    3 Pt     1.402649     2.429458     0.000000    -0.032832    -0.003201     0.001350    -0.113451     0.113504     0.005003    -0.003020    -0.007987    -0.006254     0.178528    -0.035671    -0.024701     0.060373
    4 Pt     2.805297     0.000000     0.000000    -0.049822     0.005736    -0.005621    -0.108563     0.108859    -0.000446    -0.009215     0.009993     0.004985     0.105590    -0.022080    -0.016431     0.038511
    5 Pt     5.610599     4.858922     0.000000    -0.023500     0.000148    -0.000259    -0.110989     0.110989     0.001917     0.001868    -0.008661     0.005016     0.216021    -0.039854    -0.032855     0.072709
    6 Pt     4.207946     2.429458     0.000000    -0.027078     0.001984    -0.000948    -0.110912     0.110934    -0.001905     0.008656     0.002011    -0.008822     0.229917    -0.043780    -0.033515     0.077295
    7 Pt     5.610603     0.000000     0.000000    -0.024446     0.000392     0.002487    -0.111182     0.111210    -0.001339     0.001153     0.008925     0.007740     0.205259    -0.039058    -0.030116     0.069173
    8 Pt     8.415904     4.858922     0.000000    -0.031104    -0.001060    -0.002207    -0.111830     0.111857    -0.003378    -0.006738    -0.001613     0.000380     0.203752    -0.037667    -0.030714     0.068381
    9 Pt     7.013251     2.429458     0.000000    -0.025072     0.003738    -0.002282    -0.102057     0.102151    -0.000198    -0.011625     0.003955    -0.002487     0.211807    -0.037805    -0.034191     0.071996
   10 Pt     4.207950     5.668742     2.290536     0.068740     0.003047     0.012218    -0.007650     0.014734    -0.006793    -0.004358     0.009632    -0.020946     0.092060    -0.027865    -0.005854     0.033719
   11 Pt     2.805301     3.239284     2.290536     0.072745    -0.007154    -0.008608     0.000928     0.011231     0.002622    -0.011112    -0.002077     0.012038     0.094884    -0.022380    -0.012166     0.034546
   12 Pt     1.402649     0.809819     2.290536     0.078768     0.016218    -0.007581    -0.008920     0.020001    -0.005736     0.019263    -0.006330     0.014865     0.076602    -0.022157    -0.013822     0.035980
   13 Pt     7.013247     5.668742     2.290536     0.044511     0.000954     0.027957    -0.031135     0.041855     0.004020     0.002320     0.040439    -0.008579     0.047709    -0.035613    -0.012421     0.048034
   14 Pt     5.610599     3.239284     2.290536     0.001512    -0.007141     0.002671    -0.032662     0.033540    -0.010020    -0.018587     0.009623     0.012895     0.059166    -0.021785    -0.011820     0.033605
   15 Pt     4.207946     0.809819     2.290536     0.041499    -0.027897    -0.012457    -0.028816     0.041997     0.003699    -0.034446    -0.019922     0.003088     0.047346    -0.035066    -0.011862     0.046928
   16 Pt     9.818553     5.668742     2.290536     0.085042    -0.002053     0.000186     0.008534     0.008780     0.002449     0.000174    -0.002844    -0.005091     0.105330    -0.021114    -0.014156     0.035271
   17 Pt     8.415904     3.239284     2.290536     0.033314     0.010543    -0.001864    -0.022042     0.024505     0.006211     0.024288     0.004361     0.010087     0.050522    -0.020761    -0.013334     0.034095
   18 Pt     7.013251     0.809819     2.290536     0.020043     0.016667    -0.010959    -0.037467     0.042446    -0.005157     0.015033    -0.024626    -0.007664     0.028246    -0.023641    -0.011006     0.034647
   19 Pt     5.610603     6.478568     4.581048    -0.073337    -0.000676     0.010684     0.107641     0.108172     0.031110    -0.001353    -0.012293     0.022683     0.160062    -0.060555     0.005094     0.055461
   20 Pt     4.207950     4.049103     4.581048    -0.071193    -0.033805     0.042504    -0.064820     0.084564    -0.023766     0.049501     0.014972    -0.005359    -0.215631    -0.095407     0.030547     0.064860
   21 Pt     2.805297     1.619638     4.581048    -0.128376    -0.003358    -0.022033     0.037860     0.043933     0.005723     0.008873    -0.037003    -0.035810    -0.110868    -0.054349     0.002471     0.051878
   22 Pt     8.415900     6.478568     4.581048    -0.089608    -0.000885     0.001693     0.112943     0.112959    -0.040741     0.008723    -0.005508     0.036509     0.186006    -0.075645     0.011534     0.064111
   23 Pt     7.013247     4.049103     4.581048     0.143957    -0.001497     0.003726     0.013979     0.014545     0.022395    -0.019810    -0.084442    -0.039519     0.031371    -0.072024    -0.031857     0.103882
   24 Pt     5.610603     1.619638     4.581048     0.132367     0.030050    -0.016314    -0.044442     0.056073     0.032098     0.082206     0.065878    -0.030457     0.044312    -0.091884    -0.032744     0.124628
   25 Pt    11.221206     6.478568     4.581048    -0.075978    -0.000100    -0.010561     0.108294     0.108808     0.006282    -0.009100     0.024536     0.012444     0.135762    -0.039537    -0.013796     0.053333
   26 Pt     9.818553     4.049103     4.581048    -0.096450    -0.011528     0.009512     0.082697     0.084037     0.010300    -0.061075     0.014770    -0.023693     0.022929    -0.070055     0.011408     0.058646
   27 Pt     8.415900     1.619638     4.581048     0.043723    -0.020688     0.022593     0.083876     0.089295    -0.024999    -0.073780     0.045413     0.009240    -0.007272    -0.076570    -0.023026     0.099597
   28 C      6.742849     2.685017     5.930400    -0.224803     0.018988    -0.019399     0.079410     0.083921     0.043326     0.013341     0.028992    -0.155480     0.351438    -0.147693     0.020258     0.127435
   29 C      5.357103     2.897386     6.222336     0.216252     0.010808     0.001336     0.124454     0.124929     0.025209     0.040449     0.000640    -0.137346     0.036195    -0.094094     0.025672     0.068423
   30 O      4.721248     2.801252     7.384080    -0.298468     0.074529     0.000947    -0.058347     0.094656    -0.001603    -0.075832    -0.000158     0.175603    -0.091142    -0.072701    -0.064596     0.137297
   31 H      3.755162     2.870638     7.205064     0.370883    -0.039783     0.001952     0.008528     0.040734    -0.001395    -0.018330     0.000721     0.026697     0.012014    -0.015431    -0.010995     0.026426
 
The sperically averaged electron density of each atom fit to a function of the form exp(a - br) for r >=rmin_cloud_penetration
atom number,atomic symbol, x, y, z, a, b, Rsquared where a and b are in atomic units and Rsquared is the squared correlation coefficient
    1 Pt     0.000000     0.000000     0.000000     0.627595     1.733875     0.999927
    2 Pt     2.805301     4.858922     0.000000     0.617652     1.733363     0.999930
    3 Pt     1.402649     2.429458     0.000000     0.614923     1.733070     0.999930
    4 Pt     2.805297     0.000000     0.000000     0.629020     1.733111     0.999932
    5 Pt     5.610599     4.858922     0.000000     0.610018     1.732987     0.999933
    6 Pt     4.207946     2.429458     0.000000     0.617451     1.733621     0.999932
    7 Pt     5.610603     0.000000     0.000000     0.607502     1.732952     0.999929
    8 Pt     8.415904     4.858922     0.000000     0.610850     1.732941     0.999931
    9 Pt     7.013251     2.429458     0.000000     0.612275     1.733114     0.999931
   10 Pt     4.207950     5.668742     2.290536     0.650576     1.751196     0.999998
   11 Pt     2.805301     3.239284     2.290536     0.649112     1.751334     0.999997
   12 Pt     1.402649     0.809819     2.290536     0.638365     1.750784     0.999996
   13 Pt     7.013247     5.668742     2.290536     0.671333     1.753266     0.999998
   14 Pt     5.610599     3.239284     2.290536     0.682223     1.753821     0.999993
   15 Pt     4.207946     0.809819     2.290536     0.661509     1.751814     0.999997
   16 Pt     9.818553     5.668742     2.290536     0.657412     1.753175     0.999995
   17 Pt     8.415904     3.239284     2.290536     0.669471     1.753469     0.999993
   18 Pt     7.013251     0.809819     2.290536     0.681668     1.753922     0.999996
   19 Pt     5.610603     6.478568     4.581048     0.734401     1.747729     0.999993
   20 Pt     4.207950     4.049103     4.581048     0.721233     1.762681     0.999971
   21 Pt     2.805297     1.619638     4.581048     0.804373     1.757045     0.999985
   22 Pt     8.415900     6.478568     4.581048     0.738803     1.748329     0.999989
   23 Pt     7.013247     4.049103     4.581048     0.576426     1.754788     0.999917
   24 Pt     5.610603     1.619638     4.581048     0.555640     1.754525     0.999955
   25 Pt    11.221206     6.478568     4.581048     0.733399     1.747348     0.999995
   26 Pt     9.818553     4.049103     4.581048     0.808274     1.757339     0.999998
   27 Pt     8.415900     1.619638     4.581048     0.687773     1.757075     0.999982
   28 C      6.742849     2.685017     5.930400    -0.674753     1.727325     0.999973
   29 C      5.357103     2.897386     6.222336    -0.808853     1.786985     0.999450
   30 O      4.721248     2.801252     7.384080    -2.295386     1.668273     0.997363
   31 H      3.755162     2.870638     7.205064    -3.542197     1.691284     0.994719
 
 2020/09/06  08:40:56
