   32
jmolscript: load "" {1 1 1} spacegroup "x,y,z" unitcell [{      8.415900     0.000000     0.000000 }, {      4.207950     7.288380     0.000000 }, {      0.000000     0.000000    24.000000 }]
Pt     0.000000     0.000000     0.000000    -0.029962
Pt     2.805301     4.858922     0.000000    -0.026083
Pt     1.402649     2.429458     0.000000    -0.021543
Pt     2.805297     0.000000     0.000000    -0.047985
Pt     5.610599     4.858922     0.000000    -0.026132
Pt     4.207946     2.429458     0.000000    -0.039678
Pt     5.610603     0.000000     0.000000    -0.038085
Pt     8.415904     4.858922     0.000000    -0.023520
Pt     7.013251     2.429458     0.000000    -0.026738
Pt     4.207950     5.668742     2.290536     0.068476
Pt     2.805301     3.239284     2.290536     0.041867
Pt     1.402649     0.809819     2.290536     0.048738
Pt     7.013247     5.668742     2.290536     0.050718
Pt     5.610599     3.239284     2.290536     0.053877
Pt     4.207946     0.809819     2.290536     0.081231
Pt     9.818553     5.668742     2.290536     0.045010
Pt     8.415904     3.239284     2.290536     0.015820
Pt     7.013251     0.809819     2.290536     0.055096
Pt     5.610603     6.478568     4.581048    -0.065910
Pt     4.207950     4.049103     4.581048    -0.049852
Pt     2.805297     1.619638     4.581048    -0.045298
Pt     8.415900     6.478568     4.581048    -0.049458
Pt     7.013247     4.049103     4.581048     0.012286
Pt     5.610603     1.619638     4.581048    -0.131574
Pt    11.221206     6.478568     4.581048    -0.045859
Pt     9.818553     4.049103     4.581048     0.018349
Pt     8.415900     1.619638     4.581048     0.015395
C      7.890335     2.949243     6.135984     0.092139
C      9.176516     3.649882     6.448200     0.234004
O      9.697747     3.903212     7.503000    -0.213630
O      7.187822     2.559220     7.216824    -0.294102
H      6.355717     2.127471     6.891840     0.342401
 
 Chargemol version 3.5 September 26, 2017.
See ddec.sourceforge.net for latest version.
 
Computational parameters:
Number of radial integration shells =    100
Cutoff radius (pm) =    500
Error in the integrated total number of electrons before renormalization (e) =    8.8796E-05
Charge convergence tolerance =    1.0000E-05
Minimum radius for electron cloud penetration fitting (pm) =    200
Minimum decay exponent for electron density of buried atom tails =   1.7500
Maximum decay exponent for electron density of buried atom tails =  2.5000
Number of iterations to convergence =      7
 
The following XYZ coordinates are in angstroms. The atomic dipoles and quadrupoles are in atomic units.
atom number, atomic symbol, x, y, z, net_charge, dipole_x, dipole_y, dipole_z, dipole_mag, Qxy, Qxz, Qyz,Q(x^2-y^2), Q(3z^2 - R^2), three eigenvalues of traceless quadrupole moment tensor
    1 Pt     0.000000     0.000000     0.000000    -0.029962    -0.000846     0.000186    -0.120512     0.120515     0.000253     0.003244     0.005171     0.004069     0.213554    -0.037875    -0.033656     0.071530
    2 Pt     2.805301     4.858922     0.000000    -0.026083     0.001095     0.000267    -0.117277     0.117283     0.000165    -0.006682    -0.005176    -0.003227     0.222074    -0.039027    -0.035636     0.074663
    3 Pt     1.402649     2.429458     0.000000    -0.021543     0.001354    -0.001897    -0.114498     0.114522     0.002448    -0.003705     0.004887    -0.001578     0.223324    -0.040095    -0.034675     0.074771
    4 Pt     2.805297     0.000000     0.000000    -0.047985    -0.003292    -0.001447    -0.105412     0.105473     0.002821     0.010514     0.006207     0.006710     0.088828    -0.019340    -0.013682     0.033021
    5 Pt     5.610599     4.858922     0.000000    -0.026132    -0.000657    -0.000787    -0.117667     0.117671     0.000429     0.006033    -0.001347    -0.003226     0.214853    -0.037825    -0.034142     0.071967
    6 Pt     4.207946     2.429458     0.000000    -0.039678    -0.002200     0.002587    -0.112424     0.112475     0.000908     0.003817    -0.008684    -0.003148     0.149306    -0.027252    -0.023710     0.050962
    7 Pt     5.610603     0.000000     0.000000    -0.038085     0.001329    -0.002922    -0.112734     0.112780    -0.000909    -0.006520     0.008699     0.006809     0.143374    -0.028298    -0.021107     0.049406
    8 Pt     8.415904     4.858922     0.000000    -0.023520    -0.000844     0.001705    -0.114722     0.114738     0.000584     0.001453    -0.006258     0.001681     0.230897    -0.039858    -0.037461     0.077319
    9 Pt     7.013251     2.429458     0.000000    -0.026738    -0.000463    -0.000454    -0.113984     0.113986    -0.002209     0.003140     0.003043    -0.002561     0.209762    -0.037681    -0.032418     0.070099
   10 Pt     4.207950     5.668742     2.290536     0.068476     0.000454    -0.000047     0.000074     0.000462     0.000963     0.000752    -0.001998    -0.006239     0.087797    -0.017921    -0.011453     0.029374
   11 Pt     2.805301     3.239284     2.290536     0.041867     0.015396    -0.011082    -0.020258     0.027753     0.001937     0.019110    -0.006892     0.005822     0.075894    -0.021788    -0.012534     0.034322
   12 Pt     1.402649     0.809819     2.290536     0.048738     0.018498    -0.007128    -0.023763     0.030946    -0.000852     0.018620    -0.013313     0.000669     0.071334    -0.022337    -0.012803     0.035140
   13 Pt     7.013247     5.668742     2.290536     0.050718     0.004256     0.019483    -0.022422     0.030007    -0.001591    -0.002711     0.021211    -0.007067     0.078990    -0.019493    -0.016847     0.036341
   14 Pt     5.610599     3.239284     2.290536     0.053877    -0.009205    -0.010040    -0.008985     0.016317    -0.001036    -0.013606    -0.006563     0.007176     0.083923    -0.019951    -0.013057     0.033009
   15 Pt     4.207946     0.809819     2.290536     0.081231     0.001553     0.000674     0.009632     0.009780    -0.000399     0.003088     0.000747     0.001125     0.095836    -0.016725    -0.015431     0.032157
   16 Pt     9.818553     5.668742     2.290536     0.045010    -0.003178     0.018775    -0.020279     0.027818     0.001648     0.001982     0.020702    -0.003097     0.085827    -0.021443    -0.015861     0.037304
   17 Pt     8.415904     3.239284     2.290536     0.015820    -0.004826    -0.001709    -0.022473     0.023049     0.000555    -0.003929    -0.000897     0.004139     0.096100    -0.018162    -0.014222     0.032384
   18 Pt     7.013251     0.809819     2.290536     0.055096    -0.013146    -0.002771    -0.010206     0.016872     0.000365    -0.014941    -0.007530    -0.000616     0.086364    -0.020054    -0.014470     0.034524
   19 Pt     5.610603     6.478568     4.581048    -0.065910    -0.001111    -0.000797     0.120317     0.120324     0.016438    -0.003317    -0.003816     0.016742     0.206336    -0.052855    -0.016216     0.069071
   20 Pt     4.207950     4.049103     4.581048    -0.049852    -0.008403     0.006088     0.120087     0.120535     0.004160    -0.024954     0.021971    -0.018905     0.217571    -0.053769    -0.027784     0.081552
   21 Pt     2.805297     1.619638     4.581048    -0.045298     0.010753    -0.004885     0.118617     0.119204     0.003701    -0.023684     0.012968    -0.018621     0.205569    -0.049983    -0.024781     0.074764
   22 Pt     8.415900     6.478568     4.581048    -0.049458     0.000102     0.012524     0.118692     0.119351    -0.004151     0.000135    -0.026666     0.012875     0.204900    -0.047578    -0.026913     0.074491
   23 Pt     7.013247     4.049103     4.581048     0.012286    -0.035081     0.041458    -0.057246     0.078908    -0.025813     0.040677    -0.009035     0.000880    -0.065522    -0.050078    -0.004620     0.054698
   24 Pt     5.610603     1.619638     4.581048    -0.131574    -0.004416    -0.006886    -0.019317     0.020977     0.015104     0.008250    -0.004914     0.018182    -0.338335    -0.113356     0.039215     0.074141
   25 Pt    11.221206     6.478568     4.581048    -0.045859     0.001574    -0.008229     0.120740     0.121030    -0.009693     0.003567    -0.028664     0.013395     0.223221    -0.053734    -0.027538     0.081272
   26 Pt     9.818553     4.049103     4.581048     0.018349     0.037783     0.023327    -0.109990     0.118615     0.023131    -0.010843    -0.005196     0.032156    -0.115491    -0.040151    -0.008916     0.049068
   27 Pt     8.415900     1.619638     4.581048     0.015395     0.016748    -0.049035    -0.052546     0.073797    -0.012857     0.009206     0.038065    -0.040188    -0.057993    -0.045876    -0.005427     0.051303
   28 C      7.890335     2.949243     6.135984     0.092139    -0.033945    -0.019171     0.100332     0.107639    -0.041448     0.002397     0.002988    -0.055657     0.036046    -0.056113     0.012126     0.043987
   29 C      9.176516     3.649882     6.448200     0.234004    -0.001944    -0.001896     0.050527     0.050599    -0.105094    -0.053435    -0.021025    -0.134676    -0.282365    -0.143587    -0.028495     0.172082
   30 O      9.697747     3.903212     7.503000    -0.213630    -0.041362    -0.020707    -0.048388     0.066940    -0.048425     0.010010     0.007906    -0.061160    -0.075038    -0.050893    -0.018933     0.069826
   31 O      7.187822     2.559220     7.216824    -0.294102     0.058418     0.030637    -0.054314     0.085448     0.069191    -0.062583    -0.032324     0.093231    -0.093215    -0.067996    -0.061806     0.129802
   32 H      6.355717     2.127471     6.891840     0.342401    -0.031863    -0.015870     0.007286     0.036334     0.008365    -0.017403    -0.008866     0.011855     0.016428    -0.013118    -0.012935     0.026053
 
The sperically averaged electron density of each atom fit to a function of the form exp(a - br) for r >=rmin_cloud_penetration
atom number,atomic symbol, x, y, z, a, b, Rsquared where a and b are in atomic units and Rsquared is the squared correlation coefficient
    1 Pt     0.000000     0.000000     0.000000     0.624283     1.736277     0.999931
    2 Pt     2.805301     4.858922     0.000000     0.617100     1.735435     0.999933
    3 Pt     1.402649     2.429458     0.000000     0.616622     1.735339     0.999936
    4 Pt     2.805297     0.000000     0.000000     0.636697     1.735492     0.999937
    5 Pt     5.610599     4.858922     0.000000     0.617515     1.735285     0.999934
    6 Pt     4.207946     2.429458     0.000000     0.633910     1.735833     0.999936
    7 Pt     5.610603     0.000000     0.000000     0.629488     1.735630     0.999935
    8 Pt     8.415904     4.858922     0.000000     0.617774     1.735269     0.999939
    9 Pt     7.013251     2.429458     0.000000     0.622513     1.735806     0.999934
   10 Pt     4.207950     5.668742     2.290536     0.666020     1.754240     0.999994
   11 Pt     2.805301     3.239284     2.290536     0.665812     1.752893     0.999997
   12 Pt     1.402649     0.809819     2.290536     0.663994     1.752716     0.999998
   13 Pt     7.013247     5.668742     2.290536     0.668236     1.753522     0.999998
   14 Pt     5.610599     3.239284     2.290536     0.655493     1.752171     0.999997
   15 Pt     4.207946     0.809819     2.290536     0.639912     1.751643     0.999996
   16 Pt     9.818553     5.668742     2.290536     0.669842     1.753720     0.999997
   17 Pt     8.415904     3.239284     2.290536     0.674392     1.753887     0.999994
   18 Pt     7.013251     0.809819     2.290536     0.653946     1.751934     0.999997
   19 Pt     5.610603     6.478568     4.581048     0.793738     1.766136     0.999974
   20 Pt     4.207950     4.049103     4.581048     0.788580     1.768093     0.999982
   21 Pt     2.805297     1.619638     4.581048     0.781595     1.767381     0.999991
   22 Pt     8.415900     6.478568     4.581048     0.787789     1.767975     0.999990
   23 Pt     7.013247     4.049103     4.581048     0.655323     1.763474     0.999973
   24 Pt     5.610603     1.619638     4.581048     0.859785     1.777371     0.999983
   25 Pt    11.221206     6.478568     4.581048     0.783698     1.767830     0.999980
   26 Pt     9.818553     4.049103     4.581048     0.611477     1.759565     0.999964
   27 Pt     8.415900     1.619638     4.581048     0.645002     1.761924     0.999973
   28 C      7.890335     2.949243     6.135984    -0.485535     1.833940     0.999838
   29 C      9.176516     3.649882     6.448200    -0.511142     1.849569     0.999940
   30 O      9.697747     3.903212     7.503000    -1.816058     1.762559     0.998882
   31 O      7.187822     2.559220     7.216824    -1.708345     1.740711     0.999614
   32 H      6.355717     2.127471     6.891840    -2.811347     1.820660     0.998529
 
 2020/09/06  09:48:43
