   31
jmolscript: load "" {1 1 1} spacegroup "x,y,z" unitcell [{      8.415900     0.000000     0.000000 }, {      4.207950     7.288380     0.000000 }, {      0.000000     0.000000    24.000000 }]
Pt     0.000000     0.000000     0.000000    -0.033130
Pt     2.805301     4.858922     0.000000    -0.043637
Pt     1.402649     2.429458     0.000000    -0.029105
Pt     2.805297     0.000000     0.000000    -0.061698
Pt     5.610599     4.858922     0.000000    -0.024475
Pt     4.207946     2.429458     0.000000    -0.030796
Pt     5.610603     0.000000     0.000000    -0.029621
Pt     8.415904     4.858922     0.000000    -0.026658
Pt     7.013251     2.429458     0.000000    -0.027149
Pt     4.207950     5.668742     2.290536     0.079034
Pt     2.805301     3.239284     2.290536     0.080867
Pt     1.402649     0.809819     2.290536     0.053329
Pt     7.013247     5.668742     2.290536     0.045509
Pt     5.610599     3.239284     2.290536     0.010091
Pt     4.207946     0.809819     2.290536     0.052382
Pt     9.818553     5.668742     2.290536     0.081192
Pt     8.415904     3.239284     2.290536     0.014071
Pt     7.013251     0.809819     2.290536     0.028723
Pt     5.610603     6.478568     4.581048    -0.091219
Pt     4.207950     4.049103     4.581048    -0.073093
Pt     2.805297     1.619638     4.581048    -0.091678
Pt     8.415900     6.478568     4.581048    -0.092680
Pt     7.013247     4.049103     4.581048     0.151778
Pt     5.610603     1.619638     4.581048     0.073260
Pt    11.221206     6.478568     4.581048    -0.059101
Pt     9.818553     4.049103     4.581048    -0.075476
Pt     8.415900     1.619638     4.581048     0.075946
C      7.011787     2.336414     5.766960    -0.055886
C      7.010802     3.411771     6.686280    -0.239894
H      7.943718     3.683606     7.188456     0.169337
H      6.075224     3.694181     7.178928     0.169777
 
 Chargemol version 3.5 September 26, 2017.
See ddec.sourceforge.net for latest version.
 
Computational parameters:
Number of radial integration shells =    100
Cutoff radius (pm) =    500
Error in the integrated total number of electrons before renormalization (e) =    1.4385E-05
Charge convergence tolerance =    1.0000E-05
Minimum radius for electron cloud penetration fitting (pm) =    200
Minimum decay exponent for electron density of buried atom tails =   1.7500
Maximum decay exponent for electron density of buried atom tails =  2.5000
Number of iterations to convergence =      7
 
The following XYZ coordinates are in angstroms. The atomic dipoles and quadrupoles are in atomic units.
atom number, atomic symbol, x, y, z, net_charge, dipole_x, dipole_y, dipole_z, dipole_mag, Qxy, Qxz, Qyz,Q(x^2-y^2), Q(3z^2 - R^2), three eigenvalues of traceless quadrupole moment tensor
    1 Pt     0.000000     0.000000     0.000000    -0.033130    -0.001052     0.000597    -0.113671     0.113677     0.003615     0.000882     0.006898     0.001481     0.177342    -0.033504    -0.026154     0.059658
    2 Pt     2.805301     4.858922     0.000000    -0.043637     0.000374     0.000834    -0.113397     0.113400     0.001434     0.000172    -0.002189    -0.004258     0.152192    -0.027941    -0.022855     0.050796
    3 Pt     1.402649     2.429458     0.000000    -0.029105    -0.001731    -0.000068    -0.109526     0.109540     0.001976    -0.002980    -0.002924    -0.007467     0.172369    -0.033006    -0.024657     0.057663
    4 Pt     2.805297     0.000000     0.000000    -0.061698    -0.000035     0.006386    -0.097689     0.097897    -0.000003     0.000904    -0.011736     0.001287     0.026592    -0.011781    -0.003796     0.015576
    5 Pt     5.610599     4.858922     0.000000    -0.024475     0.001460    -0.001624    -0.109818     0.109839    -0.000549     0.007065    -0.005922     0.003932     0.201765    -0.035938    -0.032159     0.068098
    6 Pt     4.207946     2.429458     0.000000    -0.030796     0.001955     0.000111    -0.109010     0.109027    -0.000548     0.004052    -0.003365    -0.005842     0.177671    -0.032738    -0.026797     0.059535
    7 Pt     5.610603     0.000000     0.000000    -0.029621     0.001098     0.001001    -0.110779     0.110789    -0.003616    -0.001791     0.007619     0.004848     0.177872    -0.034379    -0.025592     0.059972
    8 Pt     8.415904     4.858922     0.000000    -0.026658    -0.001764    -0.001451    -0.109948     0.109971    -0.000886    -0.007252    -0.004793     0.005561     0.208183    -0.037955    -0.032162     0.070118
    9 Pt     7.013251     2.429458     0.000000    -0.027149    -0.000304    -0.000297    -0.100653     0.100654    -0.001414    -0.001050     0.003464    -0.001433     0.217105    -0.037777    -0.034713     0.072490
   10 Pt     4.207950     5.668742     2.290536     0.079034     0.003107    -0.000701     0.002555     0.004083    -0.003816    -0.000520    -0.002704    -0.011091     0.094138    -0.022453    -0.009103     0.031556
   11 Pt     2.805301     3.239284     2.290536     0.080867    -0.000146    -0.000231     0.007408     0.007413     0.000777    -0.000752     0.002985     0.015595     0.095655    -0.023942    -0.008115     0.032057
   12 Pt     1.402649     0.809819     2.290536     0.053329     0.023641    -0.015149    -0.029449     0.040689    -0.004134     0.032010    -0.016192     0.007219     0.055112    -0.030215    -0.014647     0.044862
   13 Pt     7.013247     5.668742     2.290536     0.045509     0.000948     0.036974    -0.038087     0.053090     0.001512     0.001234     0.039291    -0.014498     0.042133    -0.032766    -0.014324     0.047090
   14 Pt     5.610599     3.239284     2.290536     0.010091    -0.014478    -0.002080    -0.034924     0.037863    -0.008346    -0.027327     0.001151     0.004650     0.040878    -0.026438    -0.007713     0.034152
   15 Pt     4.207946     0.809819     2.290536     0.052382    -0.023432    -0.015299    -0.028124     0.039675     0.007186    -0.029894    -0.018085     0.005703     0.052550    -0.027966    -0.016415     0.044381
   16 Pt     9.818553     5.668742     2.290536     0.081192    -0.004039    -0.001152     0.004163     0.005914     0.002290    -0.000707    -0.001168    -0.006026     0.101283    -0.020667    -0.013134     0.033801
   17 Pt     8.415904     3.239284     2.290536     0.014071     0.014709    -0.000878    -0.034560     0.037570     0.007580     0.028111     0.002219     0.009166     0.050996    -0.025529    -0.011762     0.037291
   18 Pt     7.013251     0.809819     2.290536     0.028723    -0.000158    -0.003333    -0.022418     0.022665    -0.003061    -0.002060    -0.012458    -0.010126     0.072180    -0.018819    -0.009643     0.028462
   19 Pt     5.610603     6.478568     4.581048    -0.091219     0.006199     0.008132     0.100119     0.100640     0.035773     0.007936    -0.012121     0.039289     0.138853    -0.065823     0.017656     0.048167
   20 Pt     4.207950     4.049103     4.581048    -0.073093    -0.015224     0.006229     0.083381     0.084988    -0.004589     0.026309    -0.004769     0.002977     0.041917    -0.023889    -0.009423     0.033312
   21 Pt     2.805297     1.619638     4.581048    -0.091678     0.000781    -0.008839     0.098133     0.098533    -0.000739    -0.000552    -0.004711    -0.066313     0.085944    -0.047494     0.016950     0.030544
   22 Pt     8.415900     6.478568     4.581048    -0.092680    -0.006028     0.008707     0.102917     0.103460    -0.034427    -0.005982    -0.012149     0.037769     0.139757    -0.064205     0.015940     0.048264
   23 Pt     7.013247     4.049103     4.581048     0.151778    -0.000823    -0.030001    -0.028161     0.041156     0.001258     0.000786    -0.136030    -0.060961     0.125846    -0.111302    -0.051419     0.162721
   24 Pt     5.610603     1.619638     4.581048     0.073260    -0.030027    -0.027115    -0.041994     0.058313     0.021091     0.072246     0.039985     0.043709    -0.121520    -0.089657    -0.009416     0.099073
   25 Pt    11.221206     6.478568     4.581048    -0.059101    -0.000111     0.001633     0.101252     0.101265    -0.001436    -0.001926     0.032143    -0.024448     0.055024    -0.022348    -0.021478     0.043825
   26 Pt     9.818553     4.049103     4.581048    -0.075476     0.015693     0.006956     0.084255     0.085986     0.003254    -0.027334    -0.004789     0.002804     0.043156    -0.024839    -0.009377     0.034216
   27 Pt     8.415900     1.619638     4.581048     0.075946     0.027456    -0.026277    -0.042631     0.057111    -0.021867    -0.073790     0.044169     0.049192    -0.123037    -0.092846    -0.010807     0.103652
   28 C      7.011787     2.336414     5.766960    -0.055886    -0.001503     0.007583     0.091030     0.091358     0.000381    -0.000969    -0.087237     0.001648     0.085225    -0.083211    -0.013388     0.096598
   29 C      7.010802     3.411771     6.686280    -0.239894     0.001342    -0.029947    -0.005396     0.030459     0.000712     0.000305    -0.080922    -0.082490     0.083806    -0.055455    -0.053074     0.108529
   30 H      7.943718     3.683606     7.188456     0.169337     0.039724     0.006239     0.021584     0.045638     0.001096     0.005275     0.008211     0.005622     0.001308    -0.010220    -0.000004     0.010225
   31 H      6.075224     3.694181     7.178928     0.169777    -0.039474     0.007337     0.021256     0.045430    -0.001200    -0.005511     0.008878     0.006530     0.001242    -0.011113     0.000191     0.010922
 
The sperically averaged electron density of each atom fit to a function of the form exp(a - br) for r >=rmin_cloud_penetration
atom number,atomic symbol, x, y, z, a, b, Rsquared where a and b are in atomic units and Rsquared is the squared correlation coefficient
    1 Pt     0.000000     0.000000     0.000000     0.615566     1.733077     0.999926
    2 Pt     2.805301     4.858922     0.000000     0.619109     1.732560     0.999928
    3 Pt     1.402649     2.429458     0.000000     0.608284     1.731943     0.999931
    4 Pt     2.805297     0.000000     0.000000     0.632937     1.731707     0.999936
    5 Pt     5.610599     4.858922     0.000000     0.606353     1.731873     0.999932
    6 Pt     4.207946     2.429458     0.000000     0.613562     1.732331     0.999931
    7 Pt     5.610603     0.000000     0.000000     0.609033     1.731990     0.999931
    8 Pt     8.415904     4.858922     0.000000     0.607128     1.731703     0.999935
    9 Pt     7.013251     2.429458     0.000000     0.610759     1.732126     0.999931
   10 Pt     4.207950     5.668742     2.290536     0.651992     1.752201     0.999996
   11 Pt     2.805301     3.239284     2.290536     0.648160     1.752011     0.999996
   12 Pt     1.402649     0.809819     2.290536     0.653763     1.750982     0.999998
   13 Pt     7.013247     5.668742     2.290536     0.664478     1.752796     0.999998
   14 Pt     5.610599     3.239284     2.290536     0.680815     1.753955     0.999995
   15 Pt     4.207946     0.809819     2.290536     0.654803     1.751180     0.999998
   16 Pt     9.818553     5.668742     2.290536     0.656611     1.753127     0.999996
   17 Pt     8.415904     3.239284     2.290536     0.675464     1.753394     0.999995
   18 Pt     7.013251     0.809819     2.290536     0.666685     1.753005     0.999995
   19 Pt     5.610603     6.478568     4.581048     0.765054     1.752918     0.999989
   20 Pt     4.207950     4.049103     4.581048     0.723087     1.751024     0.999991
   21 Pt     2.805297     1.619638     4.581048     0.742217     1.745143     0.999998
   22 Pt     8.415900     6.478568     4.581048     0.764683     1.752907     0.999989
   23 Pt     7.013247     4.049103     4.581048     0.610060     1.767329     0.999965
   24 Pt     5.610603     1.619638     4.581048     0.581767     1.752150     0.999952
   25 Pt    11.221206     6.478568     4.581048     0.721699     1.746094     0.999998
   26 Pt     9.818553     4.049103     4.581048     0.726621     1.751279     0.999991
   27 Pt     8.415900     1.619638     4.581048     0.580550     1.752474     0.999949
   28 C      7.011787     2.336414     5.766960    -0.604965     1.755668     0.999840
   29 C      7.010802     3.411771     6.686280    -1.069975     1.716945     0.999103
   30 H      7.943718     3.683606     7.188456    -3.891219     1.610028     0.996635
   31 H      6.075224     3.694181     7.178928    -3.879069     1.611056     0.996668
 
 2020/09/06  07:51:04
