   32
jmolscript: load "" {1 1 1} spacegroup "x,y,z" unitcell [{      8.415900     0.000000     0.000000 }, {      4.207950     7.288380     0.000000 }, {      0.000000     0.000000    24.000000 }]
Pt     0.000000     0.000000     0.000000    -0.036818
Pt     2.805301     4.858922     0.000000    -0.042985
Pt     1.402649     2.429458     0.000000    -0.039847
Pt     2.805297     0.000000     0.000000    -0.047390
Pt     5.610599     4.858922     0.000000    -0.029370
Pt     4.207946     2.429458     0.000000    -0.027260
Pt     5.610603     0.000000     0.000000    -0.030208
Pt     8.415904     4.858922     0.000000    -0.031421
Pt     7.013251     2.429458     0.000000    -0.023672
Pt     4.207950     5.668742     2.290536     0.075827
Pt     2.805301     3.239284     2.290536     0.073925
Pt     1.402649     0.809819     2.290536     0.079271
Pt     7.013247     5.668742     2.290536     0.058849
Pt     5.610599     3.239284     2.290536     0.001236
Pt     4.207946     0.809819     2.290536     0.040191
Pt     9.818553     5.668742     2.290536     0.086329
Pt     8.415904     3.239284     2.290536     0.040909
Pt     7.013251     0.809819     2.290536     0.031774
Pt     5.610603     6.478568     4.581048    -0.097976
Pt     4.207950     4.049103     4.581048    -0.024749
Pt     2.805297     1.619638     4.581048    -0.067039
Pt     8.415900     6.478568     4.581048    -0.143122
Pt     7.013247     4.049103     4.581048     0.012362
Pt     5.610603     1.619638     4.581048     0.153649
Pt    11.221206     6.478568     4.581048    -0.064249
Pt     9.818553     4.049103     4.581048    -0.084299
Pt     8.415900     1.619638     4.581048    -0.013281
C      6.598756     3.479210     6.413736     0.218623
C      6.041535     2.208795     6.413496    -0.287799
O      6.833665     4.203741     7.512192    -0.326972
H      5.818745     1.620134     7.309608     0.184838
H      7.214433     5.065446     7.230144     0.360672
 
 Chargemol version 3.5 September 26, 2017.
See ddec.sourceforge.net for latest version.
 
Computational parameters:
Number of radial integration shells =    100
Cutoff radius (pm) =    500
Error in the integrated total number of electrons before renormalization (e) =    4.7127E-05
Charge convergence tolerance =    1.0000E-05
Minimum radius for electron cloud penetration fitting (pm) =    200
Minimum decay exponent for electron density of buried atom tails =   1.7500
Maximum decay exponent for electron density of buried atom tails =  2.5000
Number of iterations to convergence =      7
 
The following XYZ coordinates are in angstroms. The atomic dipoles and quadrupoles are in atomic units.
atom number, atomic symbol, x, y, z, net_charge, dipole_x, dipole_y, dipole_z, dipole_mag, Qxy, Qxz, Qyz,Q(x^2-y^2), Q(3z^2 - R^2), three eigenvalues of traceless quadrupole moment tensor
    1 Pt     0.000000     0.000000     0.000000    -0.036818    -0.000690     0.000980    -0.119099     0.119105     0.003906    -0.000800     0.003702    -0.004995     0.187944    -0.036023    -0.026779     0.062802
    2 Pt     2.805301     4.858922     0.000000    -0.042985     0.000892    -0.000471    -0.110555     0.110560     0.002914     0.001509    -0.002080    -0.003084     0.133015    -0.025546    -0.018888     0.044434
    3 Pt     1.402649     2.429458     0.000000    -0.039847    -0.003018     0.001256    -0.110702     0.110750     0.005512     0.003668    -0.003581    -0.009588     0.147576    -0.032188    -0.017335     0.049523
    4 Pt     2.805297     0.000000     0.000000    -0.047390     0.004449    -0.000384    -0.109871     0.109961    -0.002180    -0.007012     0.004841     0.005424     0.117521    -0.023162    -0.017286     0.040448
    5 Pt     5.610599     4.858922     0.000000    -0.029370    -0.001116    -0.003452    -0.109062     0.109122    -0.000108     0.005141    -0.004534     0.005023     0.189408    -0.034294    -0.029338     0.063632
    6 Pt     4.207946     2.429458     0.000000    -0.027260     0.001574     0.000579    -0.108373     0.108386    -0.001258     0.005736    -0.001311    -0.007853     0.201483    -0.037989    -0.029505     0.067494
    7 Pt     5.610603     0.000000     0.000000    -0.030208     0.000275     0.000791    -0.109445     0.109448    -0.002647    -0.000842     0.010374     0.002804     0.188658    -0.035209    -0.028801     0.064011
    8 Pt     8.415904     4.858922     0.000000    -0.031421     0.000593    -0.000792    -0.111550     0.111555    -0.001416    -0.007996    -0.003589     0.002736     0.187959    -0.033763    -0.029700     0.063463
    9 Pt     7.013251     2.429458     0.000000    -0.023672     0.000436    -0.001242    -0.105285     0.105293    -0.000918    -0.008062     0.004878    -0.002759     0.232482    -0.040783    -0.037471     0.078254
   10 Pt     4.207950     5.668742     2.290536     0.075827     0.000787     0.002304     0.000997     0.002631    -0.006327    -0.002489     0.004585    -0.018685     0.089725    -0.026257    -0.004431     0.030688
   11 Pt     2.805301     3.239284     2.290536     0.073925    -0.002797    -0.001073     0.000303     0.003011     0.002372    -0.010248     0.002126     0.014543     0.081988    -0.021634    -0.008604     0.030238
   12 Pt     1.402649     0.809819     2.290536     0.079271     0.004254    -0.002827     0.005198     0.007287    -0.001889     0.007336    -0.004265     0.011094     0.094228    -0.021753    -0.011290     0.033043
   13 Pt     7.013247     5.668742     2.290536     0.058849     0.000161     0.028461    -0.014648     0.032010     0.008755     0.005940     0.026437    -0.013027     0.110548    -0.030491    -0.019023     0.049515
   14 Pt     5.610599     3.239284     2.290536     0.001236    -0.008030     0.010459    -0.035203     0.037592    -0.006052    -0.010840     0.021247     0.010548     0.061150    -0.025387    -0.008792     0.034179
   15 Pt     4.207946     0.809819     2.290536     0.040191    -0.030216    -0.018699    -0.030417     0.046775     0.004304    -0.033714    -0.026631    -0.002342     0.067000    -0.038029    -0.014973     0.053002
   16 Pt     9.818553     5.668742     2.290536     0.086329    -0.003155     0.000564     0.009144     0.009689    -0.001916    -0.003140    -0.002312    -0.003297     0.114167    -0.021800    -0.016511     0.038311
   17 Pt     8.415904     3.239284     2.290536     0.040909     0.016985    -0.010176    -0.022094     0.029668    -0.001416     0.022581     0.001241     0.006298     0.084487    -0.021942    -0.016545     0.038487
   18 Pt     7.013251     0.809819     2.290536     0.031774     0.020908    -0.010097    -0.030207     0.038099    -0.003445     0.018429    -0.020247     0.004847     0.055086    -0.024216    -0.011983     0.036199
   19 Pt     5.610603     6.478568     4.581048    -0.097976    -0.003972     0.008109     0.059388     0.060071     0.009921    -0.025704    -0.007670    -0.001161    -0.031825    -0.029767    -0.000549     0.030316
   20 Pt     4.207950     4.049103     4.581048    -0.024749     0.003668    -0.001992     0.108791     0.108871    -0.005968     0.025259    -0.023587     0.021153     0.139296    -0.040251    -0.021632     0.061883
   21 Pt     2.805297     1.619638     4.581048    -0.067039    -0.004763    -0.005753     0.095734     0.096025    -0.004747     0.019355     0.017718    -0.029681     0.085805    -0.037723    -0.002992     0.040715
   22 Pt     8.415900     6.478568     4.581048    -0.143122     0.008493     0.009745     0.035861     0.038120    -0.021404     0.040468     0.032528     0.011203    -0.085154    -0.070495     0.027351     0.043145
   23 Pt     7.013247     4.049103     4.581048     0.012362     0.020005     0.009407    -0.173042     0.174449     0.019242    -0.035306    -0.074310    -0.004142    -0.168686    -0.102599     0.011058     0.091541
   24 Pt     5.610603     1.619638     4.581048     0.153649    -0.007695    -0.002606    -0.034264     0.035214     0.019670     0.045662     0.073980    -0.025737     0.159582    -0.066710    -0.049681     0.116391
   25 Pt    11.221206     6.478568     4.581048    -0.064249    -0.001902    -0.007999     0.092847     0.093210     0.009593    -0.011950     0.019287     0.011987     0.078899    -0.033112    -0.001862     0.034974
   26 Pt     9.818553     4.049103     4.581048    -0.084299     0.005793     0.005416     0.082479     0.082860     0.000932    -0.001296    -0.008030    -0.009399     0.026294    -0.009196    -0.004529     0.013725
   27 Pt     8.415900     1.619638     4.581048    -0.013281    -0.009531     0.006908     0.108884     0.109518    -0.011195    -0.046598     0.026809    -0.000202     0.148256    -0.047422    -0.032507     0.079929
   28 C      6.598756     3.479210     6.413736     0.218623    -0.005990     0.006381     0.115444     0.115775    -0.061461     0.015535     0.001555     0.112720     0.023824    -0.087982     0.006054     0.081929
   29 C      6.041535     2.208795     6.413496    -0.287799    -0.006284    -0.019414     0.014193     0.024856    -0.079760    -0.005080     0.030556     0.135543     0.022905    -0.113936     0.009833     0.104104
   30 O      6.833665     4.203741     7.512192    -0.326972    -0.024948    -0.069117    -0.058795     0.094109     0.066379     0.024959     0.061550    -0.145446    -0.136162    -0.075896    -0.068499     0.144395
   31 H      5.818745     1.620134     7.309608     0.184838    -0.009819    -0.024371     0.040189     0.048016     0.005330    -0.001533    -0.005888    -0.011891     0.015873    -0.010664    -0.000709     0.011372
   32 H      7.214433     5.065446     7.230144     0.360672     0.015640     0.037602     0.003410     0.040868     0.011024     0.006090     0.016455    -0.022778     0.000310    -0.015946    -0.011220     0.027166
 
The sperically averaged electron density of each atom fit to a function of the form exp(a - br) for r >=rmin_cloud_penetration
atom number,atomic symbol, x, y, z, a, b, Rsquared where a and b are in atomic units and Rsquared is the squared correlation coefficient
    1 Pt     0.000000     0.000000     0.000000     0.619558     1.733415     0.999924
    2 Pt     2.805301     4.858922     0.000000     0.619724     1.732393     0.999931
    3 Pt     1.402649     2.429458     0.000000     0.618238     1.732376     0.999930
    4 Pt     2.805297     0.000000     0.000000     0.624492     1.732515     0.999931
    5 Pt     5.610599     4.858922     0.000000     0.611280     1.732408     0.999930
    6 Pt     4.207946     2.429458     0.000000     0.613493     1.732567     0.999932
    7 Pt     5.610603     0.000000     0.000000     0.610163     1.732159     0.999930
    8 Pt     8.415904     4.858922     0.000000     0.610825     1.732043     0.999933
    9 Pt     7.013251     2.429458     0.000000     0.607156     1.732213     0.999929
   10 Pt     4.207950     5.668742     2.290536     0.649917     1.752230     0.999996
   11 Pt     2.805301     3.239284     2.290536     0.656644     1.753226     0.999996
   12 Pt     1.402649     0.809819     2.290536     0.637262     1.750928     0.999996
   13 Pt     7.013247     5.668742     2.290536     0.652416     1.751378     0.999998
   14 Pt     5.610599     3.239284     2.290536     0.679451     1.752954     0.999996
   15 Pt     4.207946     0.809819     2.290536     0.662160     1.751706     0.999997
   16 Pt     9.818553     5.668742     2.290536     0.650872     1.752312     0.999995
   17 Pt     8.415904     3.239284     2.290536     0.663907     1.752225     0.999997
   18 Pt     7.013251     0.809819     2.290536     0.673357     1.753845     0.999996
   19 Pt     5.610603     6.478568     4.581048     0.803255     1.757192     0.999992
   20 Pt     4.207950     4.049103     4.581048     0.682762     1.750538     0.999972
   21 Pt     2.805297     1.619638     4.581048     0.755256     1.752391     0.999997
   22 Pt     8.415900     6.478568     4.581048     0.852298     1.765830     0.999971
   23 Pt     7.013247     4.049103     4.581048     0.615880     1.758347     0.999972
   24 Pt     5.610603     1.619638     4.581048     0.568954     1.758269     0.999970
   25 Pt    11.221206     6.478568     4.581048     0.751585     1.753188     0.999992
   26 Pt     9.818553     4.049103     4.581048     0.761092     1.750482     0.999996
   27 Pt     8.415900     1.619638     4.581048     0.688161     1.752317     0.999971
   28 C      6.598756     3.479210     6.413736    -0.738947     1.806685     0.999142
   29 C      6.041535     2.208795     6.413496    -0.683263     1.737907     0.999976
   30 O      6.833665     4.203741     7.512192    -1.966820     1.709286     0.998805
   31 H      5.818745     1.620134     7.309608    -3.570671     1.667347     0.999565
   32 H      7.214433     5.065446     7.230144    -3.062894     1.773971     0.998145
 
 2020/09/07  00:16:31
