   33
jmolscript: load "" {1 1 1} spacegroup "x,y,z" unitcell [{      8.415900     0.000000     0.000000 }, {      4.207950     7.288380     0.000000 }, {      0.000000     0.000000    24.000000 }]
Pt     0.000000     0.000000     0.000000    -0.038796
Pt     2.805301     4.858922     0.000000    -0.038335
Pt     1.402649     2.429458     0.000000    -0.033706
Pt     2.805297     0.000000     0.000000    -0.045329
Pt     5.610599     4.858922     0.000000    -0.025900
Pt     4.207946     2.429458     0.000000    -0.035247
Pt     5.610603     0.000000     0.000000    -0.033410
Pt     8.415904     4.858922     0.000000    -0.027694
Pt     7.013251     2.429458     0.000000    -0.026187
Pt     4.207950     5.668742     2.290536     0.063538
Pt     2.805301     3.239284     2.290536     0.078405
Pt     1.402649     0.809819     2.290536     0.067438
Pt     7.013247     5.668742     2.290536     0.044318
Pt     5.610599     3.239284     2.290536     0.033224
Pt     4.207946     0.809819     2.290536     0.072970
Pt     9.818553     5.668742     2.290536     0.075867
Pt     8.415904     3.239284     2.290536     0.038278
Pt     7.013251     0.809819     2.290536     0.053519
Pt     5.610603     6.478568     4.581048    -0.022228
Pt     4.207950     4.049103     4.581048    -0.029608
Pt     2.805297     1.619638     4.581048    -0.106366
Pt     8.415900     6.478568     4.581048    -0.067294
Pt     7.013247     4.049103     4.581048     0.019013
Pt     5.610603     1.619638     4.581048    -0.070850
Pt    11.221206     6.478568     4.581048    -0.030103
Pt     9.818553     4.049103     4.581048    -0.082559
Pt     8.415900     1.619638     4.581048    -0.042954
C      7.071342     2.110496     6.631608     0.082616
C      6.677066     3.549878     6.494856     0.214560
O      6.154455     4.220205     7.359576    -0.261209
O      6.447880     1.297572     7.523424    -0.327557
H      8.170021     2.011330     6.748464     0.132299
H      5.479630     1.458951     7.488000     0.369283
 
 Chargemol version 3.5 September 26, 2017.
See ddec.sourceforge.net for latest version.
 
Computational parameters:
Number of radial integration shells =    100
Cutoff radius (pm) =    500
Error in the integrated total number of electrons before renormalization (e) =    1.1342E-04
Charge convergence tolerance =    1.0000E-05
Minimum radius for electron cloud penetration fitting (pm) =    200
Minimum decay exponent for electron density of buried atom tails =   1.7500
Maximum decay exponent for electron density of buried atom tails =  2.5000
Number of iterations to convergence =      7
 
The following XYZ coordinates are in angstroms. The atomic dipoles and quadrupoles are in atomic units.
atom number, atomic symbol, x, y, z, net_charge, dipole_x, dipole_y, dipole_z, dipole_mag, Qxy, Qxz, Qyz,Q(x^2-y^2), Q(3z^2 - R^2), three eigenvalues of traceless quadrupole moment tensor
    1 Pt     0.000000     0.000000     0.000000    -0.038796    -0.000225     0.001254    -0.112846     0.112854     0.003244    -0.000344    -0.001676    -0.000694     0.143208    -0.027141    -0.020637     0.047778
    2 Pt     2.805301     4.858922     0.000000    -0.038335     0.001512     0.000419    -0.113341     0.113352     0.001431     0.000507    -0.000626    -0.005347     0.150013    -0.028040    -0.021973     0.050013
    3 Pt     1.402649     2.429458     0.000000    -0.033706    -0.002728     0.000285    -0.110365     0.110400     0.003517     0.003427    -0.003677    -0.005639     0.147242    -0.029329    -0.020079     0.049408
    4 Pt     2.805297     0.000000     0.000000    -0.045329     0.000869    -0.002338    -0.111301     0.111329     0.000333    -0.002459     0.003560     0.006277     0.109660    -0.021669    -0.015216     0.036885
    5 Pt     5.610599     4.858922     0.000000    -0.025900    -0.001931     0.000086    -0.111820     0.111836    -0.000638     0.006379    -0.003570    -0.000320     0.192445    -0.032854    -0.031849     0.064703
    6 Pt     4.207946     2.429458     0.000000    -0.035247     0.000679     0.001670    -0.113419     0.113433    -0.001778     0.001870    -0.003773    -0.001996     0.164363    -0.029434    -0.025574     0.055008
    7 Pt     5.610603     0.000000     0.000000    -0.033410     0.000919     0.000297    -0.114927     0.114931    -0.002682    -0.001148     0.002557     0.003050     0.167461    -0.031027    -0.024889     0.055915
    8 Pt     8.415904     4.858922     0.000000    -0.027694     0.001384     0.000048    -0.114210     0.114218    -0.001187    -0.007835    -0.001535     0.001048     0.206251    -0.036003    -0.033362     0.069365
    9 Pt     7.013251     2.429458     0.000000    -0.026187    -0.000140    -0.001733    -0.111690     0.111704    -0.001359    -0.002129     0.005543    -0.000380     0.206365    -0.035810    -0.033322     0.069133
   10 Pt     4.207950     5.668742     2.290536     0.063538    -0.000181     0.000166    -0.006612     0.006617    -0.000668    -0.003611    -0.002178    -0.008765     0.082218    -0.018448    -0.009364     0.027812
   11 Pt     2.805301     3.239284     2.290536     0.078405    -0.001910    -0.000733     0.007244     0.007527     0.000948    -0.003715    -0.001500     0.008472     0.097519    -0.020617    -0.012244     0.032861
   12 Pt     1.402649     0.809819     2.290536     0.067438     0.008691    -0.004414    -0.007952     0.012579    -0.002674     0.011846     0.000929     0.002701     0.094348    -0.019985    -0.014347     0.034332
   13 Pt     7.013247     5.668742     2.290536     0.044318     0.000809     0.021919    -0.020137     0.029776     0.001483     0.003154     0.020818    -0.003612     0.099588    -0.022585    -0.018586     0.041171
   14 Pt     5.610599     3.239284     2.290536     0.033224    -0.010834    -0.007093    -0.018427     0.022522    -0.002448    -0.012402    -0.006084    -0.003901     0.088852    -0.021660    -0.011679     0.033339
   15 Pt     4.207946     0.809819     2.290536     0.072970    -0.008164    -0.004661    -0.001789     0.009569     0.006372    -0.009122    -0.003953     0.003634     0.104591    -0.024163    -0.012747     0.036910
   16 Pt     9.818553     5.668742     2.290536     0.075867    -0.001971    -0.002347     0.004140     0.005151    -0.000932    -0.000365    -0.001604    -0.004879     0.106203    -0.020320    -0.015134     0.035454
   17 Pt     8.415904     3.239284     2.290536     0.038278     0.014282    -0.005975    -0.016972     0.022972     0.001122     0.019624    -0.000412     0.004375     0.096493    -0.021557    -0.017835     0.039391
   18 Pt     7.013251     0.809819     2.290536     0.053519    -0.000429    -0.000180    -0.006771     0.006787    -0.004055    -0.004448    -0.004452     0.004765     0.084879    -0.019624    -0.009508     0.029132
   19 Pt     5.610603     6.478568     4.581048    -0.022228     0.010399    -0.005704     0.128719     0.129264     0.003465     0.003230    -0.036642    -0.002256     0.220734    -0.048526    -0.036240     0.084766
   20 Pt     4.207950     4.049103     4.581048    -0.029608    -0.001702     0.008024     0.112982     0.113279     0.005347     0.026099     0.036433     0.027602     0.151736    -0.052418    -0.019459     0.071877
   21 Pt     2.805297     1.619638     4.581048    -0.106366    -0.009339    -0.000793     0.065569     0.066235    -0.008047    -0.025470    -0.003515    -0.034150    -0.018600    -0.037085     0.014709     0.022377
   22 Pt     8.415900     6.478568     4.581048    -0.067294    -0.003664    -0.003163     0.099475     0.099593    -0.005220    -0.010689    -0.034013     0.010939     0.127562    -0.043546    -0.013753     0.057300
   23 Pt     7.013247     4.049103     4.581048     0.019013     0.012010     0.030592    -0.132572     0.136585     0.001801    -0.025422    -0.003375    -0.030019    -0.089379    -0.044445     0.013832     0.030613
   24 Pt     5.610603     1.619638     4.581048    -0.070850    -0.009109    -0.012245    -0.020969     0.025935     0.009104     0.047139     0.000993    -0.025316    -0.160414    -0.077779     0.030320     0.047459
   25 Pt    11.221206     6.478568     4.581048    -0.030103    -0.006803     0.001276     0.111792     0.112006     0.003232     0.006478     0.006881    -0.012152     0.150181    -0.032188    -0.019108     0.051295
   26 Pt     9.818553     4.049103     4.581048    -0.082559     0.014184     0.005560     0.089766     0.091049    -0.003618    -0.003549     0.013399    -0.007181     0.094841    -0.021007    -0.014730     0.035737
   27 Pt     8.415900     1.619638     4.581048    -0.042954     0.016630    -0.002444     0.005357     0.017642     0.004732    -0.024428     0.005628    -0.005609    -0.018404    -0.029117     0.007415     0.021702
   28 C      7.071342     2.110496     6.631608     0.082616    -0.040459    -0.081302     0.044609     0.101178     0.001374     0.019815     0.016757    -0.017088     0.160411    -0.039749    -0.021449     0.061198
   29 C      6.677066     3.549878     6.494856     0.214560    -0.007763     0.021068     0.045081     0.050363     0.061697     0.091462    -0.007039     0.177037    -0.174132    -0.117074    -0.052386     0.169460
   30 O      6.154455     4.220205     7.359576    -0.261209     0.028712    -0.021202    -0.039283     0.053076     0.016707     0.029582     0.034868     0.099482    -0.075291    -0.066879    -0.010855     0.077733
   31 O      6.447880     1.297572     7.523424    -0.327557     0.061983     0.070436    -0.064006     0.113578     0.045049    -0.070123    -0.050900     0.143529    -0.094707    -0.096663    -0.043469     0.140132
   32 H      8.170021     2.011330     6.748464     0.132299     0.060445    -0.008382     0.024790     0.065866     0.001401     0.011341    -0.006999    -0.003838     0.016701    -0.014042    -0.000635     0.014677
   33 H      5.479630     1.458951     7.488000     0.369283    -0.042494     0.001294     0.009933     0.043659     0.003278    -0.017371    -0.012592     0.019816    -0.013227    -0.021883    -0.004048     0.025931
 
The sperically averaged electron density of each atom fit to a function of the form exp(a - br) for r >=rmin_cloud_penetration
atom number,atomic symbol, x, y, z, a, b, Rsquared where a and b are in atomic units and Rsquared is the squared correlation coefficient
    1 Pt     0.000000     0.000000     0.000000     0.626376     1.734527     0.999931
    2 Pt     2.805301     4.858922     0.000000     0.621759     1.733571     0.999935
    3 Pt     1.402649     2.429458     0.000000     0.619224     1.733547     0.999935
    4 Pt     2.805297     0.000000     0.000000     0.627551     1.733426     0.999938
    5 Pt     5.610599     4.858922     0.000000     0.613929     1.733552     0.999934
    6 Pt     4.207946     2.429458     0.000000     0.624645     1.734028     0.999935
    7 Pt     5.610603     0.000000     0.000000     0.617441     1.733628     0.999933
    8 Pt     8.415904     4.858922     0.000000     0.613916     1.733437     0.999936
    9 Pt     7.013251     2.429458     0.000000     0.614482     1.733645     0.999934
   10 Pt     4.207950     5.668742     2.290536     0.667429     1.754804     0.999995
   11 Pt     2.805301     3.239284     2.290536     0.649559     1.752379     0.999996
   12 Pt     1.402649     0.809819     2.290536     0.652875     1.752442     0.999997
   13 Pt     7.013247     5.668742     2.290536     0.664238     1.752776     0.999998
   14 Pt     5.610599     3.239284     2.290536     0.665910     1.752662     0.999996
   15 Pt     4.207946     0.809819     2.290536     0.649422     1.751977     0.999997
   16 Pt     9.818553     5.668742     2.290536     0.657138     1.753505     0.999995
   17 Pt     8.415904     3.239284     2.290536     0.666675     1.752801     0.999998
   18 Pt     7.013251     0.809819     2.290536     0.663706     1.753249     0.999996
   19 Pt     5.610603     6.478568     4.581048     0.779606     1.771194     0.999989
   20 Pt     4.207950     4.049103     4.581048     0.736884     1.760737     0.999972
   21 Pt     2.805297     1.619638     4.581048     0.906737     1.776967     0.999983
   22 Pt     8.415900     6.478568     4.581048     0.837566     1.772560     0.999984
   23 Pt     7.013247     4.049103     4.581048     0.606200     1.760014     0.999971
   24 Pt     5.610603     1.619638     4.581048     0.740440     1.766894     0.999980
   25 Pt    11.221206     6.478568     4.581048     0.790528     1.771659     0.999976
   26 Pt     9.818553     4.049103     4.581048     0.833452     1.770813     0.999973
   27 Pt     8.415900     1.619638     4.581048     0.676379     1.763180     0.999960
   28 C      7.071342     2.110496     6.631608    -0.720765     1.820276     0.999683
   29 C      6.677066     3.549878     6.494856    -0.567339     1.845809     0.999598
   30 O      6.154455     4.220205     7.359576    -1.551693     1.777105     0.999531
   31 O      6.447880     1.297572     7.523424    -1.743832     1.759706     0.999121
   32 H      8.170021     2.011330     6.748464    -2.720645     1.741386     0.999984
   33 H      5.479630     1.458951     7.488000    -2.850306     1.849426     0.997655
 
 2020/09/08  13:36:42
