   33
jmolscript: load "" {1 1 1} spacegroup "x,y,z" unitcell [{      8.415900     0.000000     0.000000 }, {      4.207950     7.288380     0.000000 }, {      0.000000     0.000000    24.000000 }]
Pt     0.000000     0.000000     0.000000    -0.047110
Pt     2.805301     4.858922     0.000000    -0.034011
Pt     1.402649     2.429458     0.000000    -0.045738
Pt     2.805297     0.000000     0.000000    -0.052341
Pt     5.610599     4.858922     0.000000    -0.026310
Pt     4.207946     2.429458     0.000000    -0.026891
Pt     5.610603     0.000000     0.000000    -0.033840
Pt     8.415904     4.858922     0.000000    -0.036813
Pt     7.013251     2.429458     0.000000    -0.032121
Pt     4.207950     5.668742     2.290536     0.053491
Pt     2.805301     3.239284     2.290536     0.048863
Pt     1.402649     0.809819     2.290536     0.081746
Pt     7.013247     5.668742     2.290536     0.059645
Pt     5.610599     3.239284     2.290536     0.005032
Pt     4.207946     0.809819     2.290536     0.052703
Pt     9.818553     5.668742     2.290536     0.089618
Pt     8.415904     3.239284     2.290536     0.054637
Pt     7.013251     0.809819     2.290536     0.050473
Pt     5.610603     6.478568     4.581048    -0.093698
Pt     4.207950     4.049103     4.581048     0.012732
Pt     2.805297     1.619638     4.581048    -0.087401
Pt     8.415900     6.478568     4.581048    -0.092195
Pt     7.013247     4.049103     4.581048     0.019591
Pt     5.610603     1.619638     4.581048     0.035164
Pt    11.221206     6.478568     4.581048    -0.137218
Pt     9.818553     4.049103     4.581048    -0.121555
Pt     8.415900     1.619638     4.581048     0.019182
C      4.988655     3.706936     6.298512     0.130636
C      6.147815     2.866112     6.151416     0.089382
O      4.609010     4.116812     7.506432    -0.331884
O      6.852520     2.436054     7.238424    -0.371142
H      3.825203     4.701063     7.400664     0.388794
H      6.466294     2.827316     8.052288     0.378577
 
 Chargemol version 3.5 September 26, 2017.
See ddec.sourceforge.net for latest version.
 
Computational parameters:
Number of radial integration shells =    100
Cutoff radius (pm) =    500
Error in the integrated total number of electrons before renormalization (e) =    1.6156E-05
Charge convergence tolerance =    1.0000E-05
Minimum radius for electron cloud penetration fitting (pm) =    200
Minimum decay exponent for electron density of buried atom tails =   1.7500
Maximum decay exponent for electron density of buried atom tails =  2.5000
Number of iterations to convergence =      7
 
The following XYZ coordinates are in angstroms. The atomic dipoles and quadrupoles are in atomic units.
atom number, atomic symbol, x, y, z, net_charge, dipole_x, dipole_y, dipole_z, dipole_mag, Qxy, Qxz, Qyz,Q(x^2-y^2), Q(3z^2 - R^2), three eigenvalues of traceless quadrupole moment tensor
    1 Pt     0.000000     0.000000     0.000000    -0.047110    -0.001635     0.000181    -0.110310     0.110322     0.001220     0.006123     0.005662     0.003252     0.104436    -0.019724    -0.016421     0.036145
    2 Pt     2.805301     4.858922     0.000000    -0.034011    -0.000335     0.000001    -0.109607     0.109608     0.001354     0.009491    -0.006722    -0.001471     0.180985    -0.033146    -0.028630     0.061776
    3 Pt     1.402649     2.429458     0.000000    -0.045738    -0.000136     0.001137    -0.106469     0.106475     0.000335    -0.001814    -0.007417    -0.005492     0.097111    -0.018996    -0.014610     0.033606
    4 Pt     2.805297     0.000000     0.000000    -0.052341     0.003858    -0.001683    -0.102701     0.102787    -0.004051    -0.010489     0.006920     0.007322     0.071639    -0.017555    -0.010825     0.028381
    5 Pt     5.610599     4.858922     0.000000    -0.026310     0.000121     0.000095    -0.107394     0.107394    -0.001826    -0.001091    -0.008909     0.000611     0.195157    -0.034975    -0.030891     0.065865
    6 Pt     4.207946     2.429458     0.000000    -0.026891    -0.000296    -0.000392    -0.106351     0.106352    -0.001012     0.005949     0.004139    -0.000688     0.205717    -0.035858    -0.033217     0.069075
    7 Pt     5.610603     0.000000     0.000000    -0.033840     0.000050     0.000575    -0.108528     0.108530     0.000838     0.000085     0.009115     0.007732     0.169107    -0.033058    -0.024241     0.057299
    8 Pt     8.415904     4.858922     0.000000    -0.036813    -0.000265    -0.000339    -0.108221     0.108221    -0.001419    -0.005857    -0.005012    -0.003375     0.169178    -0.031007    -0.026069     0.057076
    9 Pt     7.013251     2.429458     0.000000    -0.032121     0.000062    -0.000334    -0.103174     0.103175     0.000042    -0.005063     0.002780    -0.003986     0.163024    -0.029480    -0.025263     0.054743
   10 Pt     4.207950     5.668742     2.290536     0.053491     0.002062     0.028367    -0.019639     0.034563    -0.003880    -0.005776     0.020807    -0.012629     0.099684    -0.024026    -0.018258     0.042284
   11 Pt     2.805301     3.239284     2.290536     0.048863    -0.025118    -0.017465    -0.023161     0.038371     0.001895    -0.023980    -0.007226     0.007673     0.091113    -0.022820    -0.019361     0.042180
   12 Pt     1.402649     0.809819     2.290536     0.081746     0.005047    -0.002749     0.004721     0.007438     0.006835     0.008282    -0.002682     0.000650     0.088071    -0.022673    -0.008244     0.030918
   13 Pt     7.013247     5.668742     2.290536     0.059645    -0.002470     0.020357    -0.019135     0.028047     0.003396     0.005839     0.023019    -0.013057     0.080706    -0.020814    -0.018506     0.039321
   14 Pt     5.610599     3.239284     2.290536     0.005032     0.006884    -0.002278    -0.024407     0.025462    -0.001397     0.002972     0.000653     0.001033     0.094974    -0.017423    -0.014429     0.031852
   15 Pt     4.207946     0.809819     2.290536     0.052703    -0.023339    -0.008785    -0.023868     0.034519     0.005353    -0.020290    -0.017393     0.004578     0.068908    -0.022107    -0.016825     0.038933
   16 Pt     9.818553     5.668742     2.290536     0.089618     0.001178    -0.001372     0.013326     0.013448     0.000591     0.000887    -0.001121    -0.003770     0.117577    -0.021590    -0.017637     0.039227
   17 Pt     8.415904     3.239284     2.290536     0.054637     0.012308    -0.002703    -0.016439     0.020713    -0.000477     0.019571     0.007020     0.022785     0.078288    -0.025960    -0.010845     0.036805
   18 Pt     7.013251     0.809819     2.290536     0.050473     0.010862    -0.009266    -0.017550     0.022624    -0.010945     0.004308    -0.019951    -0.007175     0.074688    -0.025808    -0.009781     0.035588
   19 Pt     5.610603     6.478568     4.581048    -0.093698     0.006111     0.000872     0.069366     0.069641     0.016597     0.011833    -0.018007     0.000087    -0.015844    -0.031315     0.010640     0.020675
   20 Pt     4.207950     4.049103     4.581048     0.012732    -0.036050     0.009158    -0.189313     0.192933    -0.008422     0.082327    -0.051042     0.023059    -0.145506    -0.111760     0.011343     0.100417
   21 Pt     2.805297     1.619638     4.581048    -0.087401     0.000398    -0.003125     0.083662     0.083721     0.004848     0.017575     0.008391    -0.030562     0.028601    -0.028248     0.003827     0.024421
   22 Pt     8.415900     6.478568     4.581048    -0.092195     0.005042    -0.002063     0.079222     0.079409    -0.019580     0.003061     0.000888     0.021992    -0.044757    -0.017322    -0.012702     0.030024
   23 Pt     7.013247     4.049103     4.581048     0.019591     0.013746     0.035622    -0.042460     0.057103     0.024058    -0.041237    -0.042171     0.033107    -0.079555    -0.063263    -0.011467     0.074730
   24 Pt     5.610603     1.619638     4.581048     0.035164    -0.025565    -0.042105    -0.059340     0.077121    -0.001000     0.023836     0.058291    -0.055573    -0.081087    -0.068786    -0.007301     0.076086
   25 Pt    11.221206     6.478568     4.581048    -0.137218    -0.013666     0.007712     0.037938     0.041055     0.004617    -0.015637     0.043625     0.021461    -0.126968    -0.069420     0.031080     0.038341
   26 Pt     9.818553     4.049103     4.581048    -0.121555    -0.004764     0.005880     0.061247     0.061713    -0.011413    -0.028705    -0.017102    -0.021601    -0.053264    -0.046027     0.019705     0.026322
   27 Pt     8.415900     1.619638     4.581048     0.019182    -0.018892     0.009022     0.122210     0.123990    -0.008475    -0.055948     0.033096     0.020714     0.095211    -0.053820    -0.027750     0.081569
   28 C      4.988655     3.706936     6.298512     0.130636    -0.005347     0.016940     0.121313     0.122607     0.115471    -0.023080    -0.010814    -0.086161    -0.068747    -0.113631    -0.024109     0.137741
   29 C      6.147815     2.866112     6.151416     0.089382     0.081181    -0.050368     0.082364     0.126139     0.018533     0.001335    -0.014580     0.006133    -0.034692    -0.024981    -0.001634     0.026615
   30 O      4.609010     4.116812     7.506432    -0.331884     0.030479    -0.034351    -0.090947     0.101884    -0.054365    -0.080351     0.063655     0.012093    -0.048062    -0.086931    -0.046117     0.133048
   31 O      6.852520     2.436054     7.238424    -0.371142    -0.049726     0.028897    -0.098990     0.114485    -0.033843     0.023006     0.006685     0.028450     0.372206    -0.100259    -0.026860     0.127120
   32 H      3.825203     4.701063     7.400664     0.388794    -0.032239     0.025126     0.008291     0.041706    -0.010525    -0.013518     0.011303     0.003831     0.009653    -0.012307    -0.011710     0.024016
   33 H      6.466294     2.827316     8.052288     0.378577    -0.009263     0.011552     0.037035     0.039885    -0.004867     0.005658    -0.000082     0.003143     0.064712    -0.016198    -0.006406     0.022603
 
The sperically averaged electron density of each atom fit to a function of the form exp(a - br) for r >=rmin_cloud_penetration
atom number,atomic symbol, x, y, z, a, b, Rsquared where a and b are in atomic units and Rsquared is the squared correlation coefficient
    1 Pt     0.000000     0.000000     0.000000     0.616034     1.730475     0.999919
    2 Pt     2.805301     4.858922     0.000000     0.601639     1.729512     0.999923
    3 Pt     1.402649     2.429458     0.000000     0.611547     1.729227     0.999927
    4 Pt     2.805297     0.000000     0.000000     0.616140     1.729168     0.999927
    5 Pt     5.610599     4.858922     0.000000     0.598346     1.729495     0.999925
    6 Pt     4.207946     2.429458     0.000000     0.602208     1.729708     0.999926
    7 Pt     5.610603     0.000000     0.000000     0.601407     1.729326     0.999924
    8 Pt     8.415904     4.858922     0.000000     0.602140     1.729012     0.999927
    9 Pt     7.013251     2.429458     0.000000     0.603585     1.729537     0.999926
   10 Pt     4.207950     5.668742     2.290536     0.649549     1.750684     0.999998
   11 Pt     2.805301     3.239284     2.290536     0.653175     1.750882     0.999998
   12 Pt     1.402649     0.809819     2.290536     0.634539     1.751164     0.999996
   13 Pt     7.013247     5.668742     2.290536     0.656355     1.752242     0.999997
   14 Pt     5.610599     3.239284     2.290536     0.678765     1.753370     0.999995
   15 Pt     4.207946     0.809819     2.290536     0.655871     1.751775     0.999997
   16 Pt     9.818553     5.668742     2.290536     0.647838     1.751919     0.999993
   17 Pt     8.415904     3.239284     2.290536     0.661192     1.753591     0.999995
   18 Pt     7.013251     0.809819     2.290536     0.656895     1.752480     0.999995
   19 Pt     5.610603     6.478568     4.581048     0.761267     1.750135     0.999993
   20 Pt     4.207950     4.049103     4.581048     0.618476     1.756133     0.999968
   21 Pt     2.805297     1.619638     4.581048     0.748044     1.748348     0.999990
   22 Pt     8.415900     6.478568     4.581048     0.755688     1.744418     0.999999
   23 Pt     7.013247     4.049103     4.581048     0.583061     1.748077     0.999962
   24 Pt     5.610603     1.619638     4.581048     0.570470     1.747784     0.999967
   25 Pt    11.221206     6.478568     4.581048     0.832568     1.757283     0.999994
   26 Pt     9.818553     4.049103     4.581048     0.824450     1.756252     0.999998
   27 Pt     8.415900     1.619638     4.581048     0.671234     1.751878     0.999992
   28 C      4.988655     3.706936     6.298512    -0.646753     1.798836     0.999607
   29 C      6.147815     2.866112     6.151416    -0.651113     1.784731     0.999918
   30 O      4.609010     4.116812     7.506432    -1.900355     1.708687     0.999367
   31 O      6.852520     2.436054     7.238424    -1.621611     1.723548     0.999830
   32 H      3.825203     4.701063     7.400664    -3.318772     1.743250     0.998620
   33 H      6.466294     2.827316     8.052288    -4.575575     1.621119     0.992422
 
 2020/09/08  07:29:03
