   32
jmolscript: load "" {1 1 1} spacegroup "x,y,z" unitcell [{      8.415900     0.000000     0.000000 }, {      4.207950     7.288380     0.000000 }, {      0.000000     0.000000    24.000000 }]
Pt     0.000000     0.000000     0.000000    -0.042564
Pt     2.805301     4.858922     0.000000    -0.031272
Pt     1.402649     2.429458     0.000000    -0.039578
Pt     2.805297     0.000000     0.000000    -0.050249
Pt     5.610599     4.858922     0.000000    -0.022728
Pt     4.207946     2.429458     0.000000    -0.024427
Pt     5.610603     0.000000     0.000000    -0.030439
Pt     8.415904     4.858922     0.000000    -0.032452
Pt     7.013251     2.429458     0.000000    -0.030633
Pt     4.207950     5.668742     2.290536     0.043162
Pt     2.805301     3.239284     2.290536     0.042136
Pt     1.402649     0.809819     2.290536     0.082239
Pt     7.013247     5.668742     2.290536     0.050037
Pt     5.610599     3.239284     2.290536    -0.008472
Pt     4.207946     0.809819     2.290536     0.047542
Pt     9.818553     5.668742     2.290536     0.084057
Pt     8.415904     3.239284     2.290536     0.050149
Pt     7.013251     0.809819     2.290536     0.048008
Pt     5.610603     6.478568     4.581048    -0.069156
Pt     4.207950     4.049103     4.581048     0.125162
Pt     2.805297     1.619638     4.581048    -0.070655
Pt     8.415900     6.478568     4.581048    -0.104931
Pt     7.013247     4.049103     4.581048     0.086016
Pt     5.610603     1.619638     4.581048     0.084367
Pt    11.221206     6.478568     4.581048    -0.091793
Pt     9.818553     4.049103     4.581048    -0.094728
Pt     8.415900     1.619638     4.581048    -0.043163
C      6.104612     2.957967     6.099648    -0.140371
C      4.887488     3.683525     6.516936    -0.263806
H      6.797127     2.549898     6.853560     0.148309
H      4.143514     3.074596     7.054440     0.150812
H      5.082766     4.644025     7.020600     0.149421
 
 Chargemol version 3.5 September 26, 2017.
See ddec.sourceforge.net for latest version.
 
Computational parameters:
Number of radial integration shells =    100
Cutoff radius (pm) =    500
Error in the integrated total number of electrons before renormalization (e) =    1.7057E-05
Charge convergence tolerance =    1.0000E-05
Minimum radius for electron cloud penetration fitting (pm) =    200
Minimum decay exponent for electron density of buried atom tails =   1.7500
Maximum decay exponent for electron density of buried atom tails =  2.5000
Number of iterations to convergence =      7
 
The following XYZ coordinates are in angstroms. The atomic dipoles and quadrupoles are in atomic units.
atom number, atomic symbol, x, y, z, net_charge, dipole_x, dipole_y, dipole_z, dipole_mag, Qxy, Qxz, Qyz,Q(x^2-y^2), Q(3z^2 - R^2), three eigenvalues of traceless quadrupole moment tensor
    1 Pt     0.000000     0.000000     0.000000    -0.042564    -0.002590    -0.000865    -0.110391     0.110425     0.002627     0.005695     0.003546     0.003561     0.131597    -0.025110    -0.019466     0.044576
    2 Pt     2.805301     4.858922     0.000000    -0.031272     0.000550    -0.000324    -0.110122     0.110124     0.002916     0.009106    -0.006214    -0.003323     0.186447    -0.035668    -0.027724     0.063392
    3 Pt     1.402649     2.429458     0.000000    -0.039578    -0.000191     0.002503    -0.107249     0.107279     0.001161     0.000506    -0.006326    -0.008102     0.130710    -0.026028    -0.018190     0.044218
    4 Pt     2.805297     0.000000     0.000000    -0.050249     0.004584    -0.002324    -0.100042     0.100174    -0.003745    -0.009121     0.006485     0.007753     0.077201    -0.018458    -0.010656     0.029115
    5 Pt     5.610599     4.858922     0.000000    -0.022728    -0.000329     0.000090    -0.106859     0.106860    -0.001612    -0.000197    -0.009567    -0.001166     0.208317    -0.036787    -0.033528     0.070315
    6 Pt     4.207946     2.429458     0.000000    -0.024427    -0.000269    -0.000212    -0.106426     0.106427    -0.000311     0.007283     0.004307     0.000051     0.213625    -0.036554    -0.035319     0.071873
    7 Pt     5.610603     0.000000     0.000000    -0.030439     0.000449     0.001285    -0.110713     0.110721     0.000049    -0.001514     0.008125     0.008712     0.181790    -0.035345    -0.025965     0.061310
    8 Pt     8.415904     4.858922     0.000000    -0.032452    -0.000512    -0.000821    -0.110665     0.110669    -0.002320    -0.006772    -0.003139    -0.002739     0.187933    -0.034586    -0.028632     0.063218
    9 Pt     7.013251     2.429458     0.000000    -0.030633    -0.000733     0.000004    -0.102535     0.102538    -0.000066    -0.006484     0.003673    -0.003263     0.171748    -0.030746    -0.027140     0.057886
   10 Pt     4.207950     5.668742     2.290536     0.043162     0.001355     0.025757    -0.026330     0.036858    -0.003729    -0.005468     0.031561    -0.007497     0.057114    -0.027277    -0.014070     0.041347
   11 Pt     2.805301     3.239284     2.290536     0.042136    -0.022355    -0.014216    -0.025484     0.036760    -0.000609    -0.032948    -0.012056     0.006048     0.054382    -0.031987    -0.010830     0.042817
   12 Pt     1.402649     0.809819     2.290536     0.082239     0.001975    -0.000963     0.006588     0.006945     0.004585     0.004611    -0.000165     0.001702     0.089776    -0.019821    -0.010584     0.030405
   13 Pt     7.013247     5.668742     2.290536     0.050037    -0.002342     0.023430    -0.025354     0.034602     0.004142     0.006131     0.032104    -0.004958     0.068801    -0.028886    -0.014887     0.043773
   14 Pt     5.610599     3.239284     2.290536    -0.008472     0.008313    -0.004688    -0.044150     0.045170    -0.002095     0.009681    -0.005239     0.000180     0.038143    -0.010337    -0.007742     0.018079
   15 Pt     4.207946     0.809819     2.290536     0.047542    -0.022219    -0.009076    -0.024870     0.034563     0.002855    -0.025490    -0.021056    -0.000958     0.059841    -0.029450    -0.012650     0.042100
   16 Pt     9.818553     5.668742     2.290536     0.084057    -0.000262    -0.001060     0.009263     0.009328    -0.000816    -0.000988    -0.000795    -0.002603     0.108024    -0.019565    -0.016472     0.036037
   17 Pt     8.415904     3.239284     2.290536     0.050149     0.012960    -0.008339    -0.017347     0.023204     0.003049     0.024427    -0.002469     0.016111     0.064885    -0.022294    -0.014446     0.036740
   18 Pt     7.013251     0.809819     2.290536     0.048008     0.014509    -0.006249    -0.018868     0.024608    -0.007067     0.013190    -0.017814    -0.007851     0.058216    -0.018402    -0.014989     0.033391
   19 Pt     5.610603     6.478568     4.581048    -0.069156     0.001785     0.015014     0.085190     0.086522     0.008219    -0.005174    -0.041568     0.022755     0.083025    -0.048528    -0.003303     0.051831
   20 Pt     4.207950     4.049103     4.581048     0.125162     0.010876    -0.008201    -0.022956     0.026693    -0.039563     0.092260    -0.050256     0.047542     0.041224    -0.079368    -0.052972     0.132339
   21 Pt     2.805297     1.619638     4.581048    -0.070655    -0.011198    -0.009057     0.087990     0.089161    -0.008619     0.030953     0.024916    -0.023352     0.086796    -0.047971    -0.002309     0.050280
   22 Pt     8.415900     6.478568     4.581048    -0.104931     0.007540    -0.002883     0.092490     0.092841    -0.035187     0.011254    -0.007436     0.036930     0.079352    -0.052967     0.013006     0.039961
   23 Pt     7.013247     4.049103     4.581048     0.086016     0.008326     0.023854    -0.027673     0.037471     0.043395    -0.100061    -0.049180     0.011579    -0.071272    -0.106477    -0.025931     0.132408
   24 Pt     5.610603     1.619638     4.581048     0.084367    -0.015183    -0.021324    -0.028513     0.038707     0.018701    -0.003534     0.109934    -0.075725    -0.073247    -0.105636    -0.024377     0.130013
   25 Pt    11.221206     6.478568     4.581048    -0.091793    -0.009378    -0.008779     0.090899     0.091802     0.026443    -0.003644    -0.022145     0.037911     0.130290    -0.057556     0.006590     0.050966
   26 Pt     9.818553     4.049103     4.581048    -0.094728     0.003529     0.012077     0.093116     0.093962    -0.004190     0.015445     0.013133    -0.068290     0.130204    -0.058730     0.008864     0.049866
   27 Pt     8.415900     1.619638     4.581048    -0.043163    -0.008612     0.005097     0.092790     0.093328    -0.007002    -0.052457     0.032225     0.012876     0.036851    -0.054182    -0.015242     0.069424
   28 C      6.104612     2.957967     6.099648    -0.140371    -0.058221     0.032637     0.021257     0.070048     0.046607    -0.005604     0.003860    -0.048396     0.086268    -0.067372     0.029219     0.038153
   29 C      4.887488     3.683525     6.516936    -0.263806     0.043799    -0.026899    -0.029316     0.059172    -0.012161     0.036672    -0.019049     0.012187     0.135256    -0.036605    -0.030812     0.067418
   30 H      6.797127     2.549898     6.853560     0.148309     0.031690    -0.018194     0.044744     0.057769    -0.006188     0.001698    -0.001180     0.006435     0.023102    -0.010826     0.002332     0.008494
   31 H      4.143514     3.074596     7.054440     0.150812    -0.024917    -0.027493     0.022196     0.043237    -0.001040    -0.005736    -0.002472     0.001774    -0.006604    -0.007150     0.001091     0.006059
   32 H      5.082766     4.644025     7.020600     0.149421     0.013278     0.036426     0.021055     0.044118    -0.001413    -0.000025     0.006000     0.000633    -0.006607    -0.006979     0.001208     0.005771
 
The sperically averaged electron density of each atom fit to a function of the form exp(a - br) for r >=rmin_cloud_penetration
atom number,atomic symbol, x, y, z, a, b, Rsquared where a and b are in atomic units and Rsquared is the squared correlation coefficient
    1 Pt     0.000000     0.000000     0.000000     0.621827     1.732692     0.999925
    2 Pt     2.805301     4.858922     0.000000     0.608458     1.731643     0.999928
    3 Pt     1.402649     2.429458     0.000000     0.615952     1.731571     0.999931
    4 Pt     2.805297     0.000000     0.000000     0.624102     1.731488     0.999932
    5 Pt     5.610599     4.858922     0.000000     0.604597     1.731430     0.999932
    6 Pt     4.207946     2.429458     0.000000     0.609744     1.731788     0.999932
    7 Pt     5.610603     0.000000     0.000000     0.607615     1.731437     0.999930
    8 Pt     8.415904     4.858922     0.000000     0.608060     1.731197     0.999933
    9 Pt     7.013251     2.429458     0.000000     0.611584     1.731802     0.999930
   10 Pt     4.207950     5.668742     2.290536     0.666345     1.752622     0.999997
   11 Pt     2.805301     3.239284     2.290536     0.669059     1.753065     0.999997
   12 Pt     1.402649     0.809819     2.290536     0.634185     1.750731     0.999996
   13 Pt     7.013247     5.668742     2.290536     0.664613     1.752450     0.999997
   14 Pt     5.610599     3.239284     2.290536     0.689418     1.754965     0.999993
   15 Pt     4.207946     0.809819     2.290536     0.660652     1.751676     0.999997
   16 Pt     9.818553     5.668742     2.290536     0.655047     1.752386     0.999994
   17 Pt     8.415904     3.239284     2.290536     0.660419     1.752582     0.999996
   18 Pt     7.013251     0.809819     2.290536     0.658055     1.751982     0.999997
   19 Pt     5.610603     6.478568     4.581048     0.750287     1.757162     0.999987
   20 Pt     4.207950     4.049103     4.581048     0.597511     1.762797     0.999966
   21 Pt     2.805297     1.619638     4.581048     0.746465     1.755956     0.999988
   22 Pt     8.415900     6.478568     4.581048     0.796293     1.754577     0.999994
   23 Pt     7.013247     4.049103     4.581048     0.609173     1.759844     0.999970
   24 Pt     5.610603     1.619638     4.581048     0.603594     1.758773     0.999969
   25 Pt    11.221206     6.478568     4.581048     0.778708     1.757549     0.999988
   26 Pt     9.818553     4.049103     4.581048     0.783878     1.758190     0.999988
   27 Pt     8.415900     1.619638     4.581048     0.774970     1.763224     0.999992
   28 C      6.104612     2.957967     6.099648    -0.668004     1.754041     0.999820
   29 C      4.887488     3.683525     6.516936    -0.853975     1.738751     0.999531
   30 H      6.797127     2.549898     6.853560    -3.384151     1.669968     0.999409
   31 H      4.143514     3.074596     7.054440    -3.467877     1.665153     0.999091
   32 H      5.082766     4.644025     7.020600    -3.421532     1.668528     0.999146
 
 2020/09/08  03:05:07
