   33
jmolscript: load "" {1 1 1} spacegroup "x,y,z" unitcell [{      8.415900     0.000000     0.000000 }, {      4.207950     7.288380     0.000000 }, {      0.000000     0.000000    24.000000 }]
Pt     0.000000     0.000000     0.000000    -0.035966
Pt     2.805301     4.858922     0.000000    -0.026462
Pt     1.402649     2.429458     0.000000    -0.031631
Pt     2.805297     0.000000     0.000000    -0.035048
Pt     5.610599     4.858922     0.000000    -0.031327
Pt     4.207946     2.429458     0.000000    -0.022892
Pt     5.610603     0.000000     0.000000    -0.036992
Pt     8.415904     4.858922     0.000000    -0.043438
Pt     7.013251     2.429458     0.000000    -0.040815
Pt     4.207950     5.668742     2.290536     0.041409
Pt     2.805301     3.239284     2.290536    -0.000388
Pt     1.402649     0.809819     2.290536     0.041141
Pt     7.013247     5.668742     2.290536     0.075599
Pt     5.610599     3.239284     2.290536     0.036072
Pt     4.207946     0.809819     2.290536     0.029098
Pt     9.818553     5.668742     2.290536     0.078178
Pt     8.415904     3.239284     2.290536     0.081253
Pt     7.013251     0.809819     2.290536     0.080122
Pt     5.610603     6.478568     4.581048    -0.048966
Pt     4.207950     4.049103     4.581048     0.104619
Pt     2.805297     1.619638     4.581048     0.164342
Pt     8.415900     6.478568     4.581048    -0.050398
Pt     7.013247     4.049103     4.581048    -0.072076
Pt     5.610603     1.619638     4.581048    -0.086179
Pt    11.221206     6.478568     4.581048    -0.070378
Pt     9.818553     4.049103     4.581048    -0.066015
Pt     8.415900     1.619638     4.581048    -0.071271
C      4.164995     3.841909     6.669480    -0.366247
C      4.209524     2.395355     6.846480     0.293093
O      3.179481     1.640797     6.672288    -0.278826
H      5.108792     1.926822     7.296552     0.077123
H      3.191717     4.271319     6.954648     0.161548
H      5.024044     4.372059     7.097952     0.151719
 
 Chargemol version 3.5 September 26, 2017.
See ddec.sourceforge.net for latest version.
 
Computational parameters:
Number of radial integration shells =    100
Cutoff radius (pm) =    500
Error in the integrated total number of electrons before renormalization (e) =    3.2529E-05
Charge convergence tolerance =    1.0000E-05
Minimum radius for electron cloud penetration fitting (pm) =    200
Minimum decay exponent for electron density of buried atom tails =   1.7500
Maximum decay exponent for electron density of buried atom tails =  2.5000
Number of iterations to convergence =      7
 
The following XYZ coordinates are in angstroms. The atomic dipoles and quadrupoles are in atomic units.
atom number, atomic symbol, x, y, z, net_charge, dipole_x, dipole_y, dipole_z, dipole_mag, Qxy, Qxz, Qyz,Q(x^2-y^2), Q(3z^2 - R^2), three eigenvalues of traceless quadrupole moment tensor
    1 Pt     0.000000     0.000000     0.000000    -0.035966    -0.001153    -0.003084    -0.122463     0.122507     0.000477     0.007272     0.004277     0.001209     0.191341    -0.032712    -0.031812     0.064524
    2 Pt     2.805301     4.858922     0.000000    -0.026462    -0.000400     0.000140    -0.109524     0.109524     0.003458     0.007076    -0.011035     0.000815     0.209598    -0.039949    -0.031484     0.071433
    3 Pt     1.402649     2.429458     0.000000    -0.031631     0.003052     0.000232    -0.102962     0.103007    -0.000280     0.006735    -0.003833    -0.004512     0.167827    -0.030751    -0.025894     0.056645
    4 Pt     2.805297     0.000000     0.000000    -0.035048     0.002904     0.002738    -0.100981     0.101060    -0.003553    -0.002378     0.006355     0.005460     0.143522    -0.028694    -0.019788     0.048481
    5 Pt     5.610599     4.858922     0.000000    -0.031327     0.001220    -0.001449    -0.107401     0.107418    -0.004590    -0.007055    -0.003680     0.002944     0.176736    -0.034826    -0.024776     0.059602
    6 Pt     4.207946     2.429458     0.000000    -0.022892    -0.001769    -0.001957    -0.099249     0.099284     0.000372    -0.004153     0.003139     0.000945     0.219316    -0.037333    -0.036018     0.073351
    7 Pt     5.610603     0.000000     0.000000    -0.036992    -0.002312     0.001486    -0.109532     0.109566     0.004711    -0.002621     0.001597     0.007043     0.153747    -0.031588    -0.019780     0.051368
    8 Pt     8.415904     4.858922     0.000000    -0.043438    -0.001211     0.000049    -0.108210     0.108217     0.001719     0.001088    -0.000301    -0.002636     0.130154    -0.023877    -0.019527     0.043404
    9 Pt     7.013251     2.429458     0.000000    -0.040815    -0.002538     0.002360    -0.108310     0.108365     0.000541    -0.000096    -0.000844    -0.010511     0.132687    -0.027398    -0.016843     0.044241
   10 Pt     4.207950     5.668742     2.290536     0.041409     0.001311     0.023883    -0.022728     0.032995     0.005512    -0.000185     0.027311    -0.011178     0.071604    -0.025447    -0.014646     0.040094
   11 Pt     2.805301     3.239284     2.290536    -0.000388    -0.018585     0.008912    -0.051485     0.055458    -0.002108    -0.022452     0.014761     0.002035     0.019638    -0.024323    -0.005611     0.029934
   12 Pt     1.402649     0.809819     2.290536     0.041141    -0.018740    -0.012038    -0.027128     0.035100     0.008962    -0.024244    -0.012195    -0.000401     0.056074    -0.023753    -0.013730     0.037483
   13 Pt     7.013247     5.668742     2.290536     0.075599    -0.000544     0.001175    -0.000730     0.001487     0.000994     0.002860    -0.003792    -0.002606     0.096101    -0.017976    -0.014518     0.032493
   14 Pt     5.610599     3.239284     2.290536     0.036072     0.017400    -0.011350    -0.025596     0.032966     0.001893     0.028786    -0.009183    -0.003564     0.053172    -0.030394    -0.006307     0.036701
   15 Pt     4.207946     0.809819     2.290536     0.029098     0.015015    -0.008780    -0.029861     0.034558     0.001794     0.022670    -0.019902    -0.004210     0.031927    -0.029931    -0.003220     0.033151
   16 Pt     9.818553     5.668742     2.290536     0.078178    -0.000798    -0.002390     0.004676     0.005311    -0.006228    -0.003823    -0.000233    -0.009125     0.098886    -0.024417    -0.008815     0.033232
   17 Pt     8.415904     3.239284     2.290536     0.081253     0.002375     0.000764     0.005078     0.005658     0.000505    -0.003734     0.003375     0.015907     0.100608    -0.024949    -0.009101     0.034050
   18 Pt     7.013251     0.809819     2.290536     0.080122     0.001747     0.000010     0.005165     0.005452    -0.011119     0.002161    -0.000210     0.013357     0.104978    -0.030478    -0.004626     0.035104
   19 Pt     5.610603     6.478568     4.581048    -0.048966    -0.002043     0.007763     0.115529     0.115807    -0.007170     0.014131     0.014633     0.014702     0.249834    -0.054542    -0.031802     0.086344
   20 Pt     4.207950     4.049103     4.581048     0.104619     0.003481     0.004648    -0.015234     0.016304    -0.004254    -0.008437    -0.036338    -0.000862     0.262323    -0.056067    -0.041153     0.097220
   21 Pt     2.805297     1.619638     4.581048     0.164342     0.000073    -0.011956     0.110213     0.110860     0.003281     0.023940    -0.003748    -0.002927     0.373439    -0.068506    -0.059030     0.127536
   22 Pt     8.415900     6.478568     4.581048    -0.050398    -0.001783     0.004279     0.111318     0.111414     0.004625    -0.027961     0.040736    -0.001280     0.147128    -0.052748    -0.020318     0.073066
   23 Pt     7.013247     4.049103     4.581048    -0.072076     0.006508    -0.003320     0.080910     0.081239     0.001387    -0.028974     0.003390    -0.003803     0.034613    -0.028976    -0.003585     0.032561
   24 Pt     5.610603     1.619638     4.581048    -0.086179     0.018871    -0.017893     0.015357     0.030201     0.017482    -0.043875     0.006365    -0.016104    -0.176245    -0.079545     0.026398     0.053148
   25 Pt    11.221206     6.478568     4.581048    -0.070378     0.003571     0.008341     0.083199     0.083692     0.003184     0.020970    -0.031311     0.009785     0.078426    -0.039771    -0.008051     0.047822
   26 Pt     9.818553     4.049103     4.581048    -0.066015    -0.011366     0.000015     0.096629     0.097295     0.007272     0.033093    -0.030318     0.003898     0.127389    -0.050222    -0.014025     0.064247
   27 Pt     8.415900     1.619638     4.581048    -0.071271    -0.004205    -0.002276     0.101051     0.101164    -0.003071     0.046836     0.000286    -0.023791     0.130924    -0.055963    -0.009757     0.065720
   28 C      4.164995     3.841909     6.669480    -0.366247    -0.001159    -0.003735    -0.025851     0.026145     0.012082    -0.008592    -0.007078    -0.005552     0.176608    -0.041887    -0.018564     0.060452
   29 C      4.209524     2.395355     6.846480     0.293093    -0.058392     0.010258    -0.012417     0.060572    -0.008227    -0.060195     0.015199     0.025207     0.344320    -0.072550    -0.063790     0.136340
   30 O      3.179481     1.640797     6.672288    -0.278826     0.040171     0.063266    -0.038135     0.084087     0.065567     0.018361     0.041916     0.056211     0.276988    -0.120556     0.008546     0.112010
   31 H      5.108792     1.926822     7.296552     0.077123     0.050972    -0.032102     0.034468     0.069403     0.002927     0.010225    -0.009052    -0.011513    -0.019427    -0.017880     0.004482     0.013398
   32 H      3.191717     4.271319     6.954648     0.161548    -0.037024     0.014547     0.014331     0.042282    -0.000502    -0.007070     0.004904     0.001254    -0.008717    -0.009354     0.000755     0.008599
   33 H      5.024044     4.372059     7.097952     0.151719     0.032881     0.022234     0.017859     0.043525     0.001809     0.007139     0.006237    -0.001352    -0.010536    -0.010153     0.000025     0.010129
 
The sperically averaged electron density of each atom fit to a function of the form exp(a - br) for r >=rmin_cloud_penetration
atom number,atomic symbol, x, y, z, a, b, Rsquared where a and b are in atomic units and Rsquared is the squared correlation coefficient
    1 Pt     0.000000     0.000000     0.000000     0.613051     1.732391     0.999921
    2 Pt     2.805301     4.858922     0.000000     0.604308     1.731028     0.999927
    3 Pt     1.402649     2.429458     0.000000     0.610202     1.730805     0.999931
    4 Pt     2.805297     0.000000     0.000000     0.611972     1.730797     0.999931
    5 Pt     5.610599     4.858922     0.000000     0.608654     1.731125     0.999928
    6 Pt     4.207946     2.429458     0.000000     0.607813     1.730694     0.999933
    7 Pt     5.610603     0.000000     0.000000     0.610870     1.731130     0.999927
    8 Pt     8.415904     4.858922     0.000000     0.615679     1.730783     0.999934
    9 Pt     7.013251     2.429458     0.000000     0.614979     1.731244     0.999928
   10 Pt     4.207950     5.668742     2.290536     0.664371     1.752576     0.999997
   11 Pt     2.805301     3.239284     2.290536     0.700681     1.756059     0.999996
   12 Pt     1.402649     0.809819     2.290536     0.676623     1.754716     0.999996
   13 Pt     7.013247     5.668742     2.290536     0.661762     1.753732     0.999996
   14 Pt     5.610599     3.239284     2.290536     0.672154     1.753204     0.999997
   15 Pt     4.207946     0.809819     2.290536     0.684756     1.754868     0.999995
   16 Pt     9.818553     5.668742     2.290536     0.652489     1.752653     0.999996
   17 Pt     8.415904     3.239284     2.290536     0.649054     1.752105     0.999996
   18 Pt     7.013251     0.809819     2.290536     0.641583     1.751252     0.999997
   19 Pt     5.610603     6.478568     4.581048     0.712126     1.762439     0.999956
   20 Pt     4.207950     4.049103     4.581048     0.611056     1.767056     0.999983
   21 Pt     2.805297     1.619638     4.581048     0.560889     1.765543     0.999977
   22 Pt     8.415900     6.478568     4.581048     0.819460     1.771926     0.999977
   23 Pt     7.013247     4.049103     4.581048     0.798055     1.766485     0.999981
   24 Pt     5.610603     1.619638     4.581048     0.763282     1.767163     0.999956
   25 Pt    11.221206     6.478568     4.581048     0.817470     1.771540     0.999993
   26 Pt     9.818553     4.049103     4.581048     0.768476     1.765239     0.999982
   27 Pt     8.415900     1.619638     4.581048     0.820783     1.767269     0.999986
   28 C      4.164995     3.841909     6.669480    -0.714683     1.753766     0.999821
   29 C      4.209524     2.395355     6.846480    -1.053282     1.818506     0.998132
   30 O      3.179481     1.640797     6.672288    -1.420471     1.761783     0.999577
   31 H      5.108792     1.926822     7.296552    -2.853860     1.763464     0.999155
   32 H      3.191717     4.271319     6.954648    -2.888009     1.749779     0.999722
   33 H      5.024044     4.372059     7.097952    -3.135796     1.722480     0.999708
 
 2020/09/08  06:38:58
