   33
jmolscript: load "" {1 1 1} spacegroup "x,y,z" unitcell [{      8.415900     0.000000     0.000000 }, {      4.207950     7.288380     0.000000 }, {      0.000000     0.000000    24.000000 }]
Pt     0.000000     0.000000     0.000000    -0.059235
Pt     2.805301     4.858922     0.000000    -0.029710
Pt     1.402649     2.429458     0.000000    -0.034492
Pt     2.805297     0.000000     0.000000    -0.033873
Pt     5.610599     4.858922     0.000000    -0.020291
Pt     4.207946     2.429458     0.000000    -0.029576
Pt     5.610603     0.000000     0.000000    -0.029383
Pt     8.415904     4.858922     0.000000    -0.032818
Pt     7.013251     2.429458     0.000000    -0.019754
Pt     4.207950     5.668742     2.290536     0.051901
Pt     2.805301     3.239284     2.290536     0.041176
Pt     1.402649     0.809819     2.290536     0.076961
Pt     7.013247     5.668742     2.290536     0.030402
Pt     5.610599     3.239284     2.290536    -0.020808
Pt     4.207946     0.809819     2.290536     0.041148
Pt     9.818553     5.668742     2.290536     0.077293
Pt     8.415904     3.239284     2.290536     0.029302
Pt     7.013251     0.809819     2.290536     0.051148
Pt     5.610603     6.478568     4.581048    -0.066117
Pt     4.207950     4.049103     4.581048     0.068848
Pt     2.805297     1.619638     4.581048    -0.009607
Pt     8.415900     6.478568     4.581048    -0.050922
Pt     7.013247     4.049103     4.581048     0.232582
Pt     5.610603     1.619638     4.581048     0.069601
Pt    11.221206     6.478568     4.581048    -0.100946
Pt     9.818553     4.049103     4.581048    -0.049132
Pt     8.415900     1.619638     4.581048    -0.059341
C      5.820272     3.430677     7.097424     0.046225
C      4.855326     2.802178     6.129888    -0.227662
O      6.981768     4.010059     6.562272    -0.285360
H      5.249826     4.210708     7.651608     0.103907
H      6.127145     2.656177     7.833456     0.107694
H      4.040356     2.321145     6.701712     0.130841
 
 Chargemol version 3.5 September 26, 2017.
See ddec.sourceforge.net for latest version.
 
Computational parameters:
Number of radial integration shells =    100
Cutoff radius (pm) =    500
Error in the integrated total number of electrons before renormalization (e) =    3.6215E-05
Charge convergence tolerance =    1.0000E-05
Minimum radius for electron cloud penetration fitting (pm) =    200
Minimum decay exponent for electron density of buried atom tails =   1.7500
Maximum decay exponent for electron density of buried atom tails =  2.5000
Number of iterations to convergence =      7
 
The following XYZ coordinates are in angstroms. The atomic dipoles and quadrupoles are in atomic units.
atom number, atomic symbol, x, y, z, net_charge, dipole_x, dipole_y, dipole_z, dipole_mag, Qxy, Qxz, Qyz,Q(x^2-y^2), Q(3z^2 - R^2), three eigenvalues of traceless quadrupole moment tensor
    1 Pt     0.000000     0.000000     0.000000    -0.059235    -0.007028    -0.004125    -0.099681     0.100014     0.001834     0.017487     0.010228     0.002204     0.053090    -0.018158    -0.010986     0.029144
    2 Pt     2.805301     4.858922     0.000000    -0.029710     0.000488    -0.001507    -0.110012     0.110024     0.004392     0.005063    -0.002894    -0.006292     0.186375    -0.036808    -0.025661     0.062469
    3 Pt     1.402649     2.429458     0.000000    -0.034492     0.002633     0.001282    -0.108817     0.108856     0.001658    -0.004393    -0.001858    -0.004241     0.174765    -0.031962    -0.026552     0.058514
    4 Pt     2.805297     0.000000     0.000000    -0.033873     0.002297     0.001957    -0.109899     0.109941    -0.001037    -0.003955    -0.003328     0.004291     0.179756    -0.032531    -0.027682     0.060213
    5 Pt     5.610599     4.858922     0.000000    -0.020291     0.000894     0.000773    -0.103598     0.103604    -0.002210     0.003694    -0.012254     0.000389     0.215682    -0.038663    -0.034744     0.073407
    6 Pt     4.207946     2.429458     0.000000    -0.029576    -0.000464    -0.000120    -0.102807     0.102808    -0.002198     0.007896     0.004479    -0.002388     0.209964    -0.038256    -0.032493     0.070749
    7 Pt     5.610603     0.000000     0.000000    -0.029383    -0.000957     0.000914    -0.110301     0.110309    -0.000348     0.000226     0.006578     0.010485     0.190001    -0.037351    -0.026413     0.063764
    8 Pt     8.415904     4.858922     0.000000    -0.032818    -0.002309    -0.001396    -0.106130     0.106165    -0.000954    -0.007825    -0.004885    -0.000990     0.209315    -0.036760    -0.033811     0.070570
    9 Pt     7.013251     2.429458     0.000000    -0.019754     0.001225     0.000357    -0.103453     0.103461    -0.000900    -0.008488     0.009422    -0.003860     0.217710    -0.038870    -0.035172     0.074043
   10 Pt     4.207950     5.668742     2.290536     0.051901     0.005120     0.023433    -0.027944     0.036826    -0.001571    -0.005048     0.032328    -0.010694     0.053988    -0.027144    -0.014569     0.041713
   11 Pt     2.805301     3.239284     2.290536     0.041176    -0.009536    -0.006051    -0.017944     0.021202    -0.001853    -0.020040     0.000183     0.017311     0.042232    -0.016329    -0.012540     0.028868
   12 Pt     1.402649     0.809819     2.290536     0.076961    -0.004293    -0.002767     0.002237     0.005576    -0.000071    -0.002497    -0.002222    -0.000415     0.074285    -0.012843    -0.012216     0.025059
   13 Pt     7.013247     5.668742     2.290536     0.030402    -0.000298     0.030392    -0.037641     0.048380     0.003163     0.003530     0.036825    -0.005777     0.044088    -0.032937    -0.010647     0.043583
   14 Pt     5.610599     3.239284     2.290536    -0.020808    -0.016420    -0.009417    -0.055109     0.058270     0.001973    -0.021936    -0.012710     0.002034     0.023270    -0.022738    -0.006096     0.028834
   15 Pt     4.207946     0.809819     2.290536     0.041148    -0.010352    -0.005309    -0.018139     0.021549     0.006716    -0.010084    -0.017579    -0.011320     0.043627    -0.016419    -0.012868     0.029287
   16 Pt     9.818553     5.668742     2.290536     0.077293    -0.002136    -0.001245     0.001858     0.003093    -0.002699     0.001912     0.001155    -0.003254     0.092289    -0.018634    -0.012230     0.030864
   17 Pt     8.415904     3.239284     2.290536     0.029302     0.026175    -0.015050    -0.038166     0.048665    -0.001003     0.034227    -0.015206     0.007895     0.042343    -0.033406    -0.010347     0.043754
   18 Pt     7.013251     0.809819     2.290536     0.051148     0.023073    -0.007636    -0.028521     0.037471    -0.005847     0.024790    -0.020662     0.002662     0.053343    -0.026450    -0.014878     0.041329
   19 Pt     5.610603     6.478568     4.581048    -0.066117     0.000067     0.009155     0.117833     0.118188    -0.015917     0.027367    -0.046834     0.044301     0.244890    -0.077858    -0.025395     0.103253
   20 Pt     4.207950     4.049103     4.581048     0.068848    -0.013112     0.016481    -0.022872     0.031091    -0.042446     0.068520    -0.066621    -0.054486    -0.019888    -0.086375    -0.035008     0.121383
   21 Pt     2.805297     1.619638     4.581048    -0.009607     0.030759     0.016929     0.103940     0.109710     0.019711     0.060653     0.034960     0.023872     0.061932    -0.053444    -0.033356     0.086801
   22 Pt     8.415900     6.478568     4.581048    -0.050922    -0.001316    -0.019597     0.133605     0.135041    -0.011214    -0.017306    -0.053923     0.013021     0.279371    -0.077806    -0.034166     0.111972
   23 Pt     7.013247     4.049103     4.581048     0.232582     0.008416     0.002316     0.079250     0.079729     0.021160    -0.017117    -0.011145     0.023497     0.341726    -0.081162    -0.035537     0.116699
   24 Pt     5.610603     1.619638     4.581048     0.069601     0.006926    -0.020737    -0.023533     0.032122    -0.044749    -0.022769     0.093076    -0.045380    -0.010219    -0.086322    -0.035063     0.121385
   25 Pt    11.221206     6.478568     4.581048    -0.100946     0.001037     0.001948     0.095702     0.095728     0.028272    -0.010105    -0.003453     0.032410     0.103918    -0.049959     0.010698     0.039261
   26 Pt     9.818553     4.049103     4.581048    -0.049132    -0.019076     0.008879     0.134967     0.136597     0.000298    -0.059253     0.010810    -0.024732     0.286887    -0.080467    -0.035814     0.116281
   27 Pt     8.415900     1.619638     4.581048    -0.059341     0.005059    -0.004021     0.124259     0.124427     0.010544    -0.029589     0.046402    -0.048564     0.259730    -0.080137    -0.027272     0.107408
   28 C      5.820272     3.430677     7.097424     0.046225     0.054320     0.017483    -0.084599     0.102046     0.018952     0.001402     0.001613     0.021713    -0.068464    -0.022932    -0.010393     0.033325
   29 C      4.855326     2.802178     6.129888    -0.227662     0.025721     0.012664     0.003584     0.028892    -0.019191    -0.019829    -0.016165    -0.012377    -0.063452    -0.041577     0.010783     0.030794
   30 O      6.981768     4.010059     6.562272    -0.285360    -0.124694    -0.062352    -0.029076     0.142414     0.062418    -0.057448    -0.031348     0.097700     0.252625    -0.121416    -0.008769     0.130186
   31 H      5.249826     4.210708     7.651608     0.103907    -0.021760     0.038733     0.014087     0.046607     0.007729    -0.003823     0.007198     0.001198    -0.024097    -0.014157     0.002120     0.012037
   32 H      6.127145     2.656177     7.833456     0.107694     0.020089    -0.035948     0.022233     0.046799     0.005386     0.003871    -0.005513     0.013075    -0.017978    -0.012305     0.000630     0.011675
   33 H      4.040356     2.321145     6.701712     0.130841    -0.039099    -0.023731     0.035650     0.057990     0.003391    -0.007073    -0.003674     0.003525     0.028906    -0.008667    -0.005228     0.013895
 
The sperically averaged electron density of each atom fit to a function of the form exp(a - br) for r >=rmin_cloud_penetration
atom number,atomic symbol, x, y, z, a, b, Rsquared where a and b are in atomic units and Rsquared is the squared correlation coefficient
    1 Pt     0.000000     0.000000     0.000000     0.634606     1.732772     0.999926
    2 Pt     2.805301     4.858922     0.000000     0.607197     1.731615     0.999928
    3 Pt     1.402649     2.429458     0.000000     0.613022     1.731667     0.999929
    4 Pt     2.805297     0.000000     0.000000     0.612512     1.731704     0.999929
    5 Pt     5.610599     4.858922     0.000000     0.603837     1.731466     0.999932
    6 Pt     4.207946     2.429458     0.000000     0.614758     1.732402     0.999927
    7 Pt     5.610603     0.000000     0.000000     0.607039     1.731640     0.999928
    8 Pt     8.415904     4.858922     0.000000     0.610017     1.731487     0.999931
    9 Pt     7.013251     2.429458     0.000000     0.603540     1.731436     0.999932
   10 Pt     4.207950     5.668742     2.290536     0.661592     1.751492     0.999998
   11 Pt     2.805301     3.239284     2.290536     0.665879     1.753023     0.999997
   12 Pt     1.402649     0.809819     2.290536     0.642707     1.751651     0.999996
   13 Pt     7.013247     5.668742     2.290536     0.694234     1.756547     0.999996
   14 Pt     5.610599     3.239284     2.290536     0.705745     1.756261     0.999994
   15 Pt     4.207946     0.809819     2.290536     0.665722     1.752988     0.999996
   16 Pt     9.818553     5.668742     2.290536     0.666620     1.754012     0.999995
   17 Pt     8.415904     3.239284     2.290536     0.694881     1.756552     0.999996
   18 Pt     7.013251     0.809819     2.290536     0.662232     1.751577     0.999998
   19 Pt     5.610603     6.478568     4.581048     0.757583     1.760121     0.999989
   20 Pt     4.207950     4.049103     4.581048     0.603923     1.757506     0.999976
   21 Pt     2.805297     1.619638     4.581048     0.741303     1.768783     0.999971
   22 Pt     8.415900     6.478568     4.581048     0.740320     1.761955     0.999989
   23 Pt     7.013247     4.049103     4.581048     0.486681     1.762030     0.999962
   24 Pt     5.610603     1.619638     4.581048     0.593668     1.756229     0.999973
   25 Pt    11.221206     6.478568     4.581048     0.823049     1.762644     0.999982
   26 Pt     9.818553     4.049103     4.581048     0.734645     1.761310     0.999988
   27 Pt     8.415900     1.619638     4.581048     0.752700     1.759503     0.999989
   28 C      5.820272     3.430677     7.097424    -1.080849     1.793884     0.998129
   29 C      4.855326     2.802178     6.129888    -0.523407     1.754962     0.999984
   30 O      6.981768     4.010059     6.562272    -1.355742     1.752346     0.999794
   31 H      5.249826     4.210708     7.651608    -3.176183     1.730176     0.998998
   32 H      6.127145     2.656177     7.833456    -3.458896     1.709844     0.998260
   33 H      4.040356     2.321145     6.701712    -2.797692     1.723840     0.999976
 
 2020/09/08  04:01:55
