   34
jmolscript: load "" {1 1 1} spacegroup "x,y,z" unitcell [{      8.415900     0.000000     0.000000 }, {      4.207950     7.288380     0.000000 }, {      0.000000     0.000000    24.000000 }]
Pt     0.000000     0.000000     0.000000    -0.038161
Pt     2.805301     4.858922     0.000000    -0.024393
Pt     1.402649     2.429458     0.000000    -0.029262
Pt     2.805297     0.000000     0.000000    -0.038674
Pt     5.610599     4.858922     0.000000    -0.023074
Pt     4.207946     2.429458     0.000000    -0.025719
Pt     5.610603     0.000000     0.000000    -0.037414
Pt     8.415904     4.858922     0.000000    -0.033782
Pt     7.013251     2.429458     0.000000    -0.032296
Pt     4.207950     5.668742     2.290536     0.017684
Pt     2.805301     3.239284     2.290536     0.025679
Pt     1.402649     0.809819     2.290536     0.067922
Pt     7.013247     5.668742     2.290536     0.038027
Pt     5.610599     3.239284     2.290536     0.005482
Pt     4.207946     0.809819     2.290536     0.063077
Pt     9.818553     5.668742     2.290536     0.064107
Pt     8.415904     3.239284     2.290536     0.060774
Pt     7.013251     0.809819     2.290536     0.073348
Pt     5.610603     6.478568     4.581048     0.036093
Pt     4.207950     4.049103     4.581048     0.194783
Pt     2.805297     1.619638     4.581048    -0.040946
Pt     8.415900     6.478568     4.581048     0.009398
Pt     7.013247     4.049103     4.581048    -0.001472
Pt     5.610603     1.619638     4.581048    -0.063110
Pt    11.221206     6.478568     4.581048    -0.037353
Pt     9.818553     4.049103     4.581048    -0.029496
Pt     8.415900     1.619638     4.581048    -0.081101
C      5.364215     3.427936     7.131600    -0.010085
C      6.743850     4.105348     6.907104     0.187226
O      6.898951     5.340109     7.084128    -0.299690
O      4.273893     4.069008     6.578304    -0.249450
H      7.603400     3.401028     7.057272     0.064226
H      5.197247     3.374360     8.229360     0.127189
H      5.471265     2.366748     6.739416     0.060463
 
 Chargemol version 3.5 September 26, 2017.
See ddec.sourceforge.net for latest version.
 
Computational parameters:
Number of radial integration shells =    100
Cutoff radius (pm) =    500
Error in the integrated total number of electrons before renormalization (e) =    3.7855E-05
Charge convergence tolerance =    1.0000E-05
Minimum radius for electron cloud penetration fitting (pm) =    200
Minimum decay exponent for electron density of buried atom tails =   1.7500
Maximum decay exponent for electron density of buried atom tails =  2.5000
Number of iterations to convergence =      7
 
The following XYZ coordinates are in angstroms. The atomic dipoles and quadrupoles are in atomic units.
atom number, atomic symbol, x, y, z, net_charge, dipole_x, dipole_y, dipole_z, dipole_mag, Qxy, Qxz, Qyz,Q(x^2-y^2), Q(3z^2 - R^2), three eigenvalues of traceless quadrupole moment tensor
    1 Pt     0.000000     0.000000     0.000000    -0.038161    -0.000149    -0.001437    -0.112854     0.112863     0.000207    -0.000062    -0.003216     0.005373     0.177296    -0.032356    -0.026855     0.059212
    2 Pt     2.805301     4.858922     0.000000    -0.024393     0.001642    -0.002025    -0.108398     0.108429     0.000088     0.008562     0.000226    -0.006755     0.226444    -0.041744    -0.034363     0.076107
    3 Pt     1.402649     2.429458     0.000000    -0.029262     0.000165     0.001270    -0.118377     0.118384     0.001575     0.002378    -0.002016    -0.001705     0.218682    -0.038323    -0.034658     0.072982
    4 Pt     2.805297     0.000000     0.000000    -0.038674    -0.000289    -0.005172    -0.104621     0.104749    -0.002467     0.000836     0.005536     0.003954     0.133330    -0.025794    -0.019100     0.044893
    5 Pt     5.610599     4.858922     0.000000    -0.023074     0.001379     0.001235    -0.098031     0.098048     0.000795    -0.008909    -0.007331    -0.000662     0.191941    -0.033155    -0.032203     0.065358
    6 Pt     4.207946     2.429458     0.000000    -0.025719    -0.000786     0.001298    -0.104397     0.104408    -0.001233     0.004672     0.007383    -0.001267     0.207909    -0.036643    -0.033384     0.070026
    7 Pt     5.610603     0.000000     0.000000    -0.037414     0.000127     0.001204    -0.108953     0.108960     0.001632    -0.002106     0.000619     0.006018     0.150768    -0.028567    -0.021755     0.050322
    8 Pt     8.415904     4.858922     0.000000    -0.033782    -0.002204     0.002753    -0.108241     0.108298    -0.001243    -0.001266    -0.002231    -0.005815     0.184460    -0.033935    -0.027623     0.061558
    9 Pt     7.013251     2.429458     0.000000    -0.032296    -0.002130    -0.001051    -0.108784     0.108810     0.000274    -0.005226     0.005227    -0.002001     0.179219    -0.031323    -0.029020     0.060344
   10 Pt     4.207950     5.668742     2.290536     0.017684    -0.002073     0.025435    -0.043914     0.050790     0.000867    -0.007676     0.030338    -0.004568     0.029237    -0.028821    -0.006410     0.035232
   11 Pt     2.805301     3.239284     2.290536     0.025679    -0.024606    -0.014867    -0.033849     0.044410     0.003836    -0.030388    -0.017927     0.000992     0.047785    -0.030998    -0.011508     0.042506
   12 Pt     1.402649     0.809819     2.290536     0.067922     0.000301     0.002959    -0.001603     0.003379     0.006802    -0.001342     0.008772    -0.005940     0.081326    -0.021739    -0.007312     0.029051
   13 Pt     7.013247     5.668742     2.290536     0.038027    -0.001393     0.004341    -0.028283     0.028648     0.003235     0.007884     0.006724     0.000433     0.045585    -0.010863    -0.008800     0.019663
   14 Pt     5.610599     3.239284     2.290536     0.005482     0.015303    -0.014368    -0.042562     0.047457     0.003397     0.021819    -0.022969    -0.005246     0.031378    -0.032246    -0.001883     0.034130
   15 Pt     4.207946     0.809819     2.290536     0.063077    -0.001287     0.004254    -0.007700     0.008890     0.003237     0.002045    -0.000217     0.002203     0.069183    -0.014999    -0.008186     0.023185
   16 Pt     9.818553     5.668742     2.290536     0.064107     0.003471    -0.002369    -0.007858     0.008911    -0.002592     0.001150    -0.000286     0.000112     0.080721    -0.016055    -0.010888     0.026943
   17 Pt     8.415904     3.239284     2.290536     0.060774     0.005688    -0.003578    -0.007222     0.009865    -0.001310     0.010759    -0.007338     0.013146     0.082761    -0.021472    -0.010229     0.031701
   18 Pt     7.013251     0.809819     2.290536     0.073348     0.001564    -0.000628     0.001048     0.001984    -0.011032    -0.001262     0.001843    -0.003412     0.086666    -0.025608    -0.003434     0.029042
   19 Pt     5.610603     6.478568     4.581048     0.036093     0.010648    -0.001611     0.175683     0.176013    -0.002747     0.018692    -0.038764     0.019194     0.349171    -0.075658    -0.050594     0.126252
   20 Pt     4.207950     4.049103     4.581048     0.194783    -0.027723     0.005705     0.059186     0.065606    -0.007030     0.001755     0.010430    -0.004553     0.364920    -0.068515    -0.053736     0.122252
   21 Pt     2.805297     1.619638     4.581048    -0.040946    -0.004360     0.005511     0.141462     0.141636    -0.006299     0.021999     0.013037    -0.001059     0.344504    -0.067210    -0.051226     0.118436
   22 Pt     8.415900     6.478568     4.581048     0.009398    -0.014052    -0.006298     0.155829     0.156588    -0.005327    -0.036903    -0.020090     0.002997     0.292247    -0.064193    -0.044212     0.108405
   23 Pt     7.013247     4.049103     4.581048    -0.001472     0.024651     0.029979     0.005655     0.039222     0.006562    -0.004861     0.064205    -0.029412    -0.066235    -0.067616    -0.002823     0.070440
   24 Pt     5.610603     1.619638     4.581048    -0.063110     0.001704    -0.008840     0.056412     0.057126    -0.007340    -0.020952     0.023290     0.020596     0.063898    -0.031402    -0.011539     0.042940
   25 Pt    11.221206     6.478568     4.581048    -0.037353     0.005489    -0.001981     0.142290     0.142410     0.003848     0.021479    -0.052725    -0.023320     0.318125    -0.073461    -0.051465     0.124925
   26 Pt     9.818553     4.049103     4.581048    -0.029496     0.012093    -0.002062     0.142178     0.142706    -0.001166     0.033599     0.023986    -0.005945     0.338226    -0.068277    -0.053902     0.122179
   27 Pt     8.415900     1.619638     4.581048    -0.081101     0.004059    -0.011297     0.084747     0.085593     0.014259     0.001779    -0.012298     0.017764     0.092334    -0.034280     0.000838     0.033442
   28 C      5.364215     3.427936     7.131600    -0.010085    -0.064122     0.070716    -0.036951     0.102361    -0.004646     0.015635     0.007085    -0.011995    -0.063420    -0.030038     0.011748     0.018289
   29 C      6.743850     4.105348     6.907104     0.187226    -0.017976     0.055170     0.007379     0.058492    -0.008286     0.009953    -0.022864     0.059223     0.317613    -0.086080    -0.023416     0.109496
   30 O      6.898951     5.340109     7.084128    -0.299690    -0.018877    -0.081437    -0.012552     0.084533     0.020809     0.003944    -0.022260    -0.119954     0.266488    -0.108197     0.013118     0.095079
   31 O      4.273893     4.069008     6.578304    -0.249450     0.118789    -0.063511    -0.021713     0.136440    -0.051548     0.058943    -0.025060     0.063830     0.240898    -0.101089    -0.019809     0.120899
   32 H      7.603400     3.401028     7.057272     0.064226     0.050796    -0.031831     0.017433     0.062428     0.004464     0.006258    -0.002543     0.006561    -0.025629    -0.011892     0.000948     0.010944
   33 H      5.197247     3.374360     8.229360     0.127189    -0.013774     0.005351     0.042875     0.045350    -0.004335    -0.000775     0.000248     0.011994    -0.000067    -0.007389    -0.000110     0.007499
   34 H      5.471265     2.366748     6.739416     0.060463    -0.001609    -0.037717    -0.010880     0.039288    -0.000223     0.005520    -0.004397     0.004197    -0.020510    -0.010355     0.002195     0.008160
 
The sperically averaged electron density of each atom fit to a function of the form exp(a - br) for r >=rmin_cloud_penetration
atom number,atomic symbol, x, y, z, a, b, Rsquared where a and b are in atomic units and Rsquared is the squared correlation coefficient
    1 Pt     0.000000     0.000000     0.000000     0.622591     1.733391     0.999925
    2 Pt     2.805301     4.858922     0.000000     0.607782     1.732045     0.999932
    3 Pt     1.402649     2.429458     0.000000     0.610708     1.732637     0.999928
    4 Pt     2.805297     0.000000     0.000000     0.617993     1.732123     0.999932
    5 Pt     5.610599     4.858922     0.000000     0.608684     1.731672     0.999935
    6 Pt     4.207946     2.429458     0.000000     0.614171     1.732499     0.999932
    7 Pt     5.610603     0.000000     0.000000     0.618017     1.732243     0.999933
    8 Pt     8.415904     4.858922     0.000000     0.613537     1.732034     0.999934
    9 Pt     7.013251     2.429458     0.000000     0.615019     1.732338     0.999931
   10 Pt     4.207950     5.668742     2.290536     0.698105     1.756456     0.999995
   11 Pt     2.805301     3.239284     2.290536     0.687642     1.755296     0.999996
   12 Pt     1.402649     0.809819     2.290536     0.657430     1.753142     0.999996
   13 Pt     7.013247     5.668742     2.290536     0.685728     1.755505     0.999996
   14 Pt     5.610599     3.239284     2.290536     0.695862     1.755209     0.999996
   15 Pt     4.207946     0.809819     2.290536     0.670859     1.754588     0.999996
   16 Pt     9.818553     5.668742     2.290536     0.680084     1.756331     0.999995
   17 Pt     8.415904     3.239284     2.290536     0.662628     1.753417     0.999997
   18 Pt     7.013251     0.809819     2.290536     0.651714     1.751818     0.999997
   19 Pt     5.610603     6.478568     4.581048     0.705907     1.768768     0.999963
   20 Pt     4.207950     4.049103     4.581048     0.546451     1.770753     0.999977
   21 Pt     2.805297     1.619638     4.581048     0.749465     1.768797     0.999975
   22 Pt     8.415900     6.478568     4.581048     0.761020     1.776369     0.999982
   23 Pt     7.013247     4.049103     4.581048     0.671667     1.767580     0.999966
   24 Pt     5.610603     1.619638     4.581048     0.748235     1.769517     0.999978
   25 Pt    11.221206     6.478568     4.581048     0.785233     1.772316     0.999977
   26 Pt     9.818553     4.049103     4.581048     0.745116     1.772794     0.999970
   27 Pt     8.415900     1.619638     4.581048     0.840748     1.776015     0.999984
   28 C      5.364215     3.427936     7.131600    -0.895849     1.810658     0.999316
   29 C      6.743850     4.105348     6.907104    -0.815981     1.830351     0.999014
   30 O      6.898951     5.340109     7.084128    -1.435609     1.774082     0.999656
   31 O      4.273893     4.069008     6.578304    -1.223203     1.783283     0.999853
   32 H      7.603400     3.401028     7.057272    -2.351314     1.817909     0.999687
   33 H      5.197247     3.374360     8.229360    -3.991314     1.667104     0.995510
   34 H      5.471265     2.366748     6.739416    -2.182061     1.821231     0.999638
 
 2020/09/09  09:37:13
