   34
jmolscript: load "" {1 1 1} spacegroup "x,y,z" unitcell [{      8.415900     0.000000     0.000000 }, {      4.207950     7.288380     0.000000 }, {      0.000000     0.000000    24.000000 }]
Pt     0.000000     0.000000     0.000000    -0.040155
Pt     2.805301     4.858922     0.000000    -0.034679
Pt     1.402649     2.429458     0.000000    -0.033565
Pt     2.805297     0.000000     0.000000    -0.035436
Pt     5.610599     4.858922     0.000000    -0.027149
Pt     4.207946     2.429458     0.000000    -0.036958
Pt     5.610603     0.000000     0.000000    -0.036628
Pt     8.415904     4.858922     0.000000    -0.029062
Pt     7.013251     2.429458     0.000000    -0.027486
Pt     4.207950     5.668742     2.290536     0.057460
Pt     2.805301     3.239284     2.290536     0.067481
Pt     1.402649     0.809819     2.290536     0.071354
Pt     7.013247     5.668742     2.290536     0.034079
Pt     5.610599     3.239284     2.290536     0.042256
Pt     4.207946     0.809819     2.290536     0.074007
Pt     9.818553     5.668742     2.290536     0.063053
Pt     8.415904     3.239284     2.290536     0.044022
Pt     7.013251     0.809819     2.290536     0.072262
Pt     5.610603     6.478568     4.581048     0.017461
Pt     4.207950     4.049103     4.581048    -0.025164
Pt     2.805297     1.619638     4.581048    -0.089753
Pt     8.415900     6.478568     4.581048    -0.039250
Pt     7.013247     4.049103     4.581048     0.022136
Pt     5.610603     1.619638     4.581048    -0.063714
Pt    11.221206     6.478568     4.581048    -0.031950
Pt     9.818553     4.049103     4.581048    -0.027748
Pt     8.415900     1.619638     4.581048    -0.084684
C      6.985020     4.147059     6.711696     0.043631
C      8.420718     4.090421     7.156824     0.230080
O      8.952569     5.087384     7.649592    -0.338261
O      6.367958     5.299731     7.162344    -0.354484
H      6.392899     3.255683     6.970488     0.105388
H      8.936524     3.105710     7.075560     0.064301
H      7.113367     5.926379     7.359696     0.347156
 
 Chargemol version 3.5 September 26, 2017.
See ddec.sourceforge.net for latest version.
 
Computational parameters:
Number of radial integration shells =    100
Cutoff radius (pm) =    500
Error in the integrated total number of electrons before renormalization (e) =    9.3447E-05
Charge convergence tolerance =    1.0000E-05
Minimum radius for electron cloud penetration fitting (pm) =    200
Minimum decay exponent for electron density of buried atom tails =   1.7500
Maximum decay exponent for electron density of buried atom tails =  2.5000
Number of iterations to convergence =      7
 
The following XYZ coordinates are in angstroms. The atomic dipoles and quadrupoles are in atomic units.
atom number, atomic symbol, x, y, z, net_charge, dipole_x, dipole_y, dipole_z, dipole_mag, Qxy, Qxz, Qyz,Q(x^2-y^2), Q(3z^2 - R^2), three eigenvalues of traceless quadrupole moment tensor
    1 Pt     0.000000     0.000000     0.000000    -0.040155     0.000702    -0.001209    -0.113798     0.113806     0.001762     0.000199    -0.000066     0.003143     0.143527    -0.026283    -0.021560     0.047843
    2 Pt     2.805301     4.858922     0.000000    -0.034679    -0.000631    -0.000066    -0.110465     0.110467     0.002112     0.002385     0.000139    -0.007292     0.150924    -0.029432    -0.020949     0.050380
    3 Pt     1.402649     2.429458     0.000000    -0.033565    -0.001766     0.003422    -0.113627     0.113692     0.002690     0.005309    -0.007056    -0.006015     0.163836    -0.032006    -0.023530     0.055535
    4 Pt     2.805297     0.000000     0.000000    -0.035436    -0.000912    -0.001628    -0.112121     0.112136     0.000232     0.000285     0.002212     0.005566     0.149372    -0.027750    -0.022104     0.049855
    5 Pt     5.610599     4.858922     0.000000    -0.027149    -0.000969     0.001309    -0.107967     0.107979    -0.001941     0.006115    -0.003206    -0.003230     0.180887    -0.032873    -0.027951     0.060824
    6 Pt     4.207946     2.429458     0.000000    -0.036958     0.001943     0.001521    -0.113562     0.113588    -0.001470    -0.003342    -0.003149    -0.002301     0.159922    -0.028756    -0.024809     0.053565
    7 Pt     5.610603     0.000000     0.000000    -0.036628     0.000439    -0.000105    -0.112259     0.112259    -0.002404    -0.001731     0.000286     0.004764     0.143593    -0.027318    -0.020591     0.047909
    8 Pt     8.415904     4.858922     0.000000    -0.029062     0.000866     0.001073    -0.109890     0.109899    -0.000273    -0.006254    -0.002497    -0.000159     0.197490    -0.033637    -0.032649     0.066286
    9 Pt     7.013251     2.429458     0.000000    -0.027486    -0.001219    -0.001769    -0.113699     0.113720    -0.000985     0.000333     0.008138    -0.000631     0.194160    -0.033710    -0.031690     0.065400
   10 Pt     4.207950     5.668742     2.290536     0.057460    -0.002124    -0.001031    -0.010595     0.010855    -0.000312    -0.005612    -0.001661    -0.006195     0.076521    -0.016640    -0.009687     0.026327
   11 Pt     2.805301     3.239284     2.290536     0.067481     0.001603    -0.002183     0.001877     0.003295     0.001910     0.001512    -0.004830     0.006211     0.094698    -0.019926    -0.012138     0.032064
   12 Pt     1.402649     0.809819     2.290536     0.071354    -0.000528     0.003933     0.000581     0.004011    -0.000928     0.001775     0.006967    -0.001982     0.095087    -0.017664    -0.015105     0.032769
   13 Pt     7.013247     5.668742     2.290536     0.034079     0.003267     0.015540    -0.026656     0.031028     0.003326     0.004791     0.012949    -0.000582     0.079216    -0.017710    -0.013270     0.030979
   14 Pt     5.610599     3.239284     2.290536     0.042256    -0.015648    -0.009421    -0.019331     0.026596    -0.000251    -0.014237    -0.010879     0.000730     0.083313    -0.020683    -0.013717     0.034400
   15 Pt     4.207946     0.809819     2.290536     0.074007    -0.001007    -0.000126     0.005939     0.006025     0.002426    -0.000977     0.001416    -0.004019     0.100647    -0.019966    -0.013640     0.033606
   16 Pt     9.818553     5.668742     2.290536     0.063053    -0.001494     0.001346    -0.006162     0.006482    -0.002346     0.001214     0.003602     0.000853     0.091413    -0.017881    -0.012893     0.030774
   17 Pt     8.415904     3.239284     2.290536     0.044022     0.013575    -0.009741    -0.015891     0.023059    -0.000986     0.014237    -0.013210     0.001303     0.094216    -0.021822    -0.016678     0.038500
   18 Pt     7.013251     0.809819     2.290536     0.072262     0.001747     0.001160     0.001205     0.002419    -0.002313    -0.001053     0.001836     0.004682     0.100955    -0.020148    -0.013594     0.033742
   19 Pt     5.610603     6.478568     4.581048     0.017461    -0.004848    -0.011709     0.134113     0.134710     0.000131    -0.009192    -0.040133    -0.023433     0.210490    -0.048297    -0.037294     0.085591
   20 Pt     4.207950     4.049103     4.581048    -0.025164     0.002283     0.002266     0.124770     0.124811     0.002707     0.032310     0.032199     0.001917     0.247311    -0.053865    -0.043848     0.097712
   21 Pt     2.805297     1.619638     4.581048    -0.089753     0.003617     0.005916     0.081065     0.081361    -0.000509    -0.000285     0.003903     0.015700     0.080269    -0.021558    -0.005517     0.027075
   22 Pt     8.415900     6.478568     4.581048    -0.039250     0.018288     0.003111     0.094904     0.096700     0.002208     0.023420    -0.030761    -0.007809     0.068934    -0.037845    -0.010004     0.047849
   23 Pt     7.013247     4.049103     4.581048     0.022136    -0.014584    -0.002079    -0.089916     0.091114    -0.013461    -0.016101     0.022745    -0.014984     0.006353    -0.020956    -0.015750     0.036706
   24 Pt     5.610603     1.619638     4.581048    -0.063714    -0.005038    -0.008668     0.082728     0.083334    -0.001676     0.008913     0.002075     0.002868     0.063946    -0.014070    -0.009724     0.023795
   25 Pt    11.221206     6.478568     4.581048    -0.031950    -0.006149     0.001936     0.124267     0.124434    -0.000737    -0.009733    -0.017091    -0.003677     0.229736    -0.042280    -0.037583     0.079862
   26 Pt     9.818553     4.049103     4.581048    -0.027748     0.021323     0.007633     0.078604     0.081802    -0.000957     0.013453     0.037923    -0.019616     0.070274    -0.035217    -0.016998     0.052215
   27 Pt     8.415900     1.619638     4.581048    -0.084684    -0.001188    -0.009787     0.066484     0.067211     0.001260    -0.018086     0.000108     0.016503     0.043859    -0.015851    -0.011274     0.027125
   28 C      6.985020     4.147059     6.711696     0.043631    -0.065655     0.088742     0.018783     0.111976    -0.025954    -0.009618    -0.011422     0.004831     0.044461    -0.037714     0.018261     0.019454
   29 C      8.420718     4.090421     7.156824     0.230080     0.019527     0.030846     0.024211     0.043806    -0.000057    -0.081135    -0.080920     0.036079     0.362111    -0.120280    -0.056192     0.176472
   30 O      8.952569     5.087384     7.649592    -0.338261    -0.022796    -0.074484    -0.029197     0.083187     0.080252    -0.048975    -0.010387    -0.071906     0.275269    -0.139421     0.025267     0.114154
   31 O      6.367958     5.299731     7.162344    -0.354484     0.038176    -0.092656    -0.043148     0.109107    -0.005706     0.013087     0.059876    -0.156541    -0.152201    -0.078997    -0.045149     0.124146
   32 H      6.392899     3.255683     6.970488     0.105388    -0.040388    -0.047507     0.023720     0.066714    -0.001329    -0.008788    -0.005050    -0.001682    -0.016351    -0.012808     0.004296     0.008512
   33 H      8.936524     3.105710     7.075560     0.064301     0.035100    -0.053064     0.008125     0.064139    -0.001322     0.010176    -0.005816     0.005065    -0.016727    -0.013134     0.000283     0.012851
   34 H      7.113367     5.926379     7.359696     0.347156     0.012281     0.029771     0.012177     0.034430    -0.003316    -0.005209     0.017835    -0.037644    -0.010402    -0.019165    -0.011489     0.030654
 
The sperically averaged electron density of each atom fit to a function of the form exp(a - br) for r >=rmin_cloud_penetration
atom number,atomic symbol, x, y, z, a, b, Rsquared where a and b are in atomic units and Rsquared is the squared correlation coefficient
    1 Pt     0.000000     0.000000     0.000000     0.627565     1.734268     0.999931
    2 Pt     2.805301     4.858922     0.000000     0.618653     1.733074     0.999936
    3 Pt     1.402649     2.429458     0.000000     0.618236     1.733388     0.999933
    4 Pt     2.805297     0.000000     0.000000     0.620654     1.733236     0.999936
    5 Pt     5.610599     4.858922     0.000000     0.614797     1.733052     0.999936
    6 Pt     4.207946     2.429458     0.000000     0.624916     1.733790     0.999935
    7 Pt     5.610603     0.000000     0.000000     0.620398     1.733313     0.999935
    8 Pt     8.415904     4.858922     0.000000     0.614530     1.732883     0.999938
    9 Pt     7.013251     2.429458     0.000000     0.614294     1.733267     0.999934
   10 Pt     4.207950     5.668742     2.290536     0.673738     1.755289     0.999995
   11 Pt     2.805301     3.239284     2.290536     0.655459     1.752916     0.999996
   12 Pt     1.402649     0.809819     2.290536     0.652486     1.752390     0.999996
   13 Pt     7.013247     5.668742     2.290536     0.674996     1.754022     0.999997
   14 Pt     5.610599     3.239284     2.290536     0.666911     1.753122     0.999997
   15 Pt     4.207946     0.809819     2.290536     0.650202     1.752264     0.999996
   16 Pt     9.818553     5.668742     2.290536     0.666758     1.754516     0.999995
   17 Pt     8.415904     3.239284     2.290536     0.667681     1.753155     0.999997
   18 Pt     7.013251     0.809819     2.290536     0.655366     1.752694     0.999996
   19 Pt     5.610603     6.478568     4.581048     0.743689     1.773854     0.999971
   20 Pt     4.207950     4.049103     4.581048     0.725759     1.766208     0.999973
   21 Pt     2.805297     1.619638     4.581048     0.899019     1.782004     0.999986
   22 Pt     8.415900     6.478568     4.581048     0.758242     1.768108     0.999962
   23 Pt     7.013247     4.049103     4.581048     0.616043     1.764107     0.999968
   24 Pt     5.610603     1.619638     4.581048     0.830612     1.776575     0.999975
   25 Pt    11.221206     6.478568     4.581048     0.777606     1.769120     0.999973
   26 Pt     9.818553     4.049103     4.581048     0.710837     1.765777     0.999950
   27 Pt     8.415900     1.619638     4.581048     0.872419     1.783995     0.999991
   28 C      6.985020     4.147059     6.711696    -0.724905     1.834151     0.999193
   29 C      8.420718     4.090421     7.156824    -0.711667     1.872659     0.999331
   30 O      8.952569     5.087384     7.649592    -1.337864     1.833740     0.998840
   31 O      6.367958     5.299731     7.162344    -1.387123     1.777691     0.999817
   32 H      6.392899     3.255683     6.970488    -2.616232     1.785655     0.999660
   33 H      8.936524     3.105710     7.075560    -2.156324     1.867486     0.999182
   34 H      7.113367     5.926379     7.359696    -2.622807     1.881059     0.998419
 
 2020/09/16  05:47:07
