   33
jmolscript: load "" {1 1 1} spacegroup "x,y,z" unitcell [{      8.415900     0.000000     0.000000 }, {      4.207950     7.288380     0.000000 }, {      0.000000     0.000000    24.000000 }]
Pt     0.000000     0.000000     0.000000    -0.043644
Pt     2.805301     4.858922     0.000000    -0.040872
Pt     1.402649     2.429458     0.000000    -0.040106
Pt     2.805297     0.000000     0.000000    -0.043697
Pt     5.610599     4.858922     0.000000    -0.030419
Pt     4.207946     2.429458     0.000000    -0.038061
Pt     5.610603     0.000000     0.000000    -0.039381
Pt     8.415904     4.858922     0.000000    -0.028765
Pt     7.013251     2.429458     0.000000    -0.030553
Pt     4.207950     5.668742     2.290536     0.075898
Pt     2.805301     3.239284     2.290536     0.077489
Pt     1.402649     0.809819     2.290536     0.077677
Pt     7.013247     5.668742     2.290536     0.036290
Pt     5.610599     3.239284     2.290536     0.028814
Pt     4.207946     0.809819     2.290536     0.077099
Pt     9.818553     5.668742     2.290536     0.083748
Pt     8.415904     3.239284     2.290536     0.027706
Pt     7.013251     0.809819     2.290536     0.065638
Pt     5.610603     6.478568     4.581048    -0.079311
Pt     4.207950     4.049103     4.581048    -0.059114
Pt     2.805297     1.619638     4.581048    -0.077183
Pt     8.415900     6.478568     4.581048    -0.088490
Pt     7.013247     4.049103     4.581048     0.122183
Pt     5.610603     1.619638     4.581048    -0.043184
Pt    11.221206     6.478568     4.581048    -0.080971
Pt     9.818553     4.049103     4.581048    -0.081413
Pt     8.415900     1.619638     4.581048    -0.032544
C      6.567815     3.664532     6.407784    -0.011502
C      7.256033     2.799955     7.391496    -0.357015
H      5.786007     4.304255     6.845544     0.112022
H      7.856680     1.993168     6.934728     0.131263
H      6.532304     2.378126     8.109672     0.159444
H      7.947294     3.450290     7.966704     0.170954
 
 Chargemol version 3.5 September 26, 2017.
See ddec.sourceforge.net for latest version.
 
Computational parameters:
Number of radial integration shells =    100
Cutoff radius (pm) =    500
Error in the integrated total number of electrons before renormalization (e) =    2.3065E-05
Charge convergence tolerance =    1.0000E-05
Minimum radius for electron cloud penetration fitting (pm) =    200
Minimum decay exponent for electron density of buried atom tails =   1.7500
Maximum decay exponent for electron density of buried atom tails =  2.5000
Number of iterations to convergence =      7
 
The following XYZ coordinates are in angstroms. The atomic dipoles and quadrupoles are in atomic units.
atom number, atomic symbol, x, y, z, net_charge, dipole_x, dipole_y, dipole_z, dipole_mag, Qxy, Qxz, Qyz,Q(x^2-y^2), Q(3z^2 - R^2), three eigenvalues of traceless quadrupole moment tensor
    1 Pt     0.000000     0.000000     0.000000    -0.043644    -0.001457     0.000254    -0.112002     0.112012     0.002520     0.003224     0.000848     0.002274     0.112038    -0.021457    -0.016095     0.037552
    2 Pt     2.805301     4.858922     0.000000    -0.040872     0.001531     0.000190    -0.110524     0.110535     0.002102    -0.000009    -0.002980    -0.007944     0.125494    -0.025417    -0.016565     0.041982
    3 Pt     1.402649     2.429458     0.000000    -0.040106    -0.001775     0.001622    -0.105739     0.105766     0.003905     0.002248    -0.003769    -0.003437     0.113056    -0.023365    -0.014645     0.038010
    4 Pt     2.805297     0.000000     0.000000    -0.043697     0.002625    -0.002190    -0.105928     0.105984     0.000798    -0.006499     0.005981     0.010339     0.100034    -0.022693    -0.012170     0.034863
    5 Pt     5.610599     4.858922     0.000000    -0.030419    -0.000576     0.000624    -0.106006     0.106010    -0.002860     0.008180    -0.007947     0.002482     0.172904    -0.032002    -0.027162     0.059163
    6 Pt     4.207946     2.429458     0.000000    -0.038061    -0.001285    -0.001077    -0.112991     0.113003    -0.001955     0.003729     0.002938    -0.002932     0.155103    -0.028564    -0.023419     0.051983
    7 Pt     5.610603     0.000000     0.000000    -0.039381     0.001082     0.000978    -0.109397     0.109407    -0.002932    -0.001305     0.002220     0.008707     0.128487    -0.026707    -0.016226     0.042934
    8 Pt     8.415904     4.858922     0.000000    -0.028765     0.000291    -0.000817    -0.106515     0.106519    -0.000876    -0.010239    -0.004439    -0.000804     0.181804    -0.032581    -0.029358     0.061938
    9 Pt     7.013251     2.429458     0.000000    -0.030553     0.001011    -0.000697    -0.102624     0.102632     0.000110    -0.003347     0.010216    -0.004533     0.161583    -0.029409    -0.025889     0.055298
   10 Pt     4.207950     5.668742     2.290536     0.075898     0.001426     0.001381     0.000030     0.001985    -0.000234    -0.004147     0.001116    -0.007058     0.097682    -0.020139    -0.012776     0.032915
   11 Pt     2.805301     3.239284     2.290536     0.077489    -0.002005     0.001006     0.007007     0.007357    -0.000464    -0.004147     0.001196     0.014632     0.099305    -0.023902    -0.009629     0.033531
   12 Pt     1.402649     0.809819     2.290536     0.077677     0.001113    -0.002050     0.005000     0.005518    -0.003647     0.004246    -0.000969    -0.004153     0.096851    -0.020534    -0.012139     0.032673
   13 Pt     7.013247     5.668742     2.290536     0.036290    -0.002255     0.033098    -0.029459     0.044366     0.002269     0.000780     0.033484    -0.002806     0.089535    -0.031897    -0.016205     0.048102
   14 Pt     5.610599     3.239284     2.290536     0.028814    -0.019405    -0.010658    -0.026870     0.034816    -0.002248    -0.019652    -0.010526    -0.004454     0.086236    -0.026499    -0.011247     0.037746
   15 Pt     4.207946     0.809819     2.290536     0.077099    -0.002391    -0.002383     0.005124     0.006136     0.006798    -0.004180    -0.005416    -0.004719     0.101143    -0.024054    -0.010714     0.034767
   16 Pt     9.818553     5.668742     2.290536     0.083748    -0.002091    -0.001786     0.008061     0.008518    -0.002579     0.003195     0.001049    -0.005189     0.110866    -0.022326    -0.014820     0.037146
   17 Pt     8.415904     3.239284     2.290536     0.027706     0.024081    -0.012798    -0.030327     0.040785     0.003016     0.027508    -0.008745     0.005849     0.084932    -0.029195    -0.013910     0.043105
   18 Pt     7.013251     0.809819     2.290536     0.065638     0.000746    -0.001202    -0.006921     0.007064    -0.003682    -0.003199    -0.008364     0.004068     0.085143    -0.020015    -0.010031     0.030046
   19 Pt     5.610603     6.478568     4.581048    -0.079311     0.005343     0.003380     0.072935     0.073209     0.006469     0.011908    -0.029843     0.001729     0.024295    -0.034083     0.001137     0.032946
   20 Pt     4.207950     4.049103     4.581048    -0.059114    -0.001464     0.001691     0.064149     0.064188     0.003462     0.027435     0.010162     0.029794    -0.047393    -0.032298    -0.006092     0.038390
   21 Pt     2.805297     1.619638     4.581048    -0.077183     0.002319    -0.005690     0.074104     0.074359    -0.006974    -0.003394    -0.003822    -0.022856    -0.026642    -0.013339    -0.004779     0.018118
   22 Pt     8.415900     6.478568     4.581048    -0.088490     0.006837     0.013892     0.084115     0.085529    -0.010098    -0.001879    -0.010198     0.015095     0.009594    -0.018778     0.006277     0.012501
   23 Pt     7.013247     4.049103     4.581048     0.122183     0.014406     0.016526    -0.125047     0.126954     0.025086    -0.034185    -0.049076     0.003566     0.113364    -0.049950    -0.033413     0.083363
   24 Pt     5.610603     1.619638     4.581048    -0.043184    -0.000152    -0.011991     0.058671     0.059884     0.013948     0.038990     0.009012    -0.004148    -0.006693    -0.040867    -0.003049     0.043916
   25 Pt    11.221206     6.478568     4.581048    -0.080971    -0.008464    -0.008855     0.067749     0.068847     0.000707    -0.008089     0.003010     0.009537    -0.031120    -0.013861     0.001072     0.012790
   26 Pt     9.818553     4.049103     4.581048    -0.081413     0.012195     0.006247     0.081430     0.082575     0.001870    -0.026262    -0.001731    -0.010542     0.029785    -0.028295     0.000096     0.028199
   27 Pt     8.415900     1.619638     4.581048    -0.032544    -0.003673     0.008041     0.054970     0.055676    -0.010880    -0.031739     0.038624     0.001145    -0.070584    -0.055636     0.001143     0.054493
   28 C      6.567815     3.664532     6.407784    -0.011502     0.027508    -0.061910     0.067404     0.095566     0.090797     0.042115     0.064271    -0.024371    -0.204896    -0.097126    -0.054976     0.152102
   29 C      7.256033     2.799955     7.391496    -0.357015    -0.032802     0.030755    -0.062979     0.077384    -0.009810     0.013577    -0.013788    -0.016984    -0.054771    -0.026904    -0.002357     0.029261
   30 H      5.786007     4.304255     6.845544     0.112022    -0.040861     0.037353     0.031935     0.063912    -0.005848    -0.004198     0.006944    -0.000884     0.016451    -0.008903    -0.003508     0.012411
   31 H      7.856680     1.993168     6.934728     0.131263     0.014193    -0.022611    -0.012849     0.029628    -0.009227     0.004004    -0.008327    -0.005614     0.006274    -0.011030    -0.003995     0.015024
   32 H      6.532304     2.378126     8.109672     0.159444    -0.024827    -0.011901     0.012903     0.030406    -0.003679    -0.006256    -0.007465     0.005765    -0.007143    -0.012542     0.004543     0.007999
   33 H      7.947294     3.450290     7.966704     0.170954     0.019579     0.021541     0.007951     0.030176     0.000285     0.009498     0.002550    -0.006822    -0.011165    -0.012364     0.004140     0.008223
 
The sperically averaged electron density of each atom fit to a function of the form exp(a - br) for r >=rmin_cloud_penetration
atom number,atomic symbol, x, y, z, a, b, Rsquared where a and b are in atomic units and Rsquared is the squared correlation coefficient
    1 Pt     0.000000     0.000000     0.000000     0.617967     1.731252     0.999925
    2 Pt     2.805301     4.858922     0.000000     0.611124     1.730384     0.999927
    3 Pt     1.402649     2.429458     0.000000     0.611949     1.730237     0.999929
    4 Pt     2.805297     0.000000     0.000000     0.614576     1.730276     0.999929
    5 Pt     5.610599     4.858922     0.000000     0.605544     1.730173     0.999930
    6 Pt     4.207946     2.429458     0.000000     0.614436     1.730589     0.999930
    7 Pt     5.610603     0.000000     0.000000     0.609677     1.730269     0.999927
    8 Pt     8.415904     4.858922     0.000000     0.602173     1.729640     0.999933
    9 Pt     7.013251     2.429458     0.000000     0.606470     1.730124     0.999930
   10 Pt     4.207950     5.668742     2.290536     0.648735     1.751854     0.999995
   11 Pt     2.805301     3.239284     2.290536     0.644635     1.751605     0.999995
   12 Pt     1.402649     0.809819     2.290536     0.642316     1.751531     0.999996
   13 Pt     7.013247     5.668742     2.290536     0.667944     1.752457     0.999998
   14 Pt     5.610599     3.239284     2.290536     0.670340     1.753194     0.999996
   15 Pt     4.207946     0.809819     2.290536     0.643935     1.751512     0.999996
   16 Pt     9.818553     5.668742     2.290536     0.650382     1.752359     0.999995
   17 Pt     8.415904     3.239284     2.290536     0.670335     1.752615     0.999997
   18 Pt     7.013251     0.809819     2.290536     0.655000     1.752511     0.999996
   19 Pt     5.610603     6.478568     4.581048     0.783215     1.759696     0.999992
   20 Pt     4.207950     4.049103     4.581048     0.726474     1.753058     0.999986
   21 Pt     2.805297     1.619638     4.581048     0.767065     1.749403     0.999997
   22 Pt     8.415900     6.478568     4.581048     0.753244     1.747899     0.999994
   23 Pt     7.013247     4.049103     4.581048     0.501667     1.753156     0.999945
   24 Pt     5.610603     1.619638     4.581048     0.657134     1.748659     0.999972
   25 Pt    11.221206     6.478568     4.581048     0.782803     1.753174     0.999990
   26 Pt     9.818553     4.049103     4.581048     0.735649     1.749657     0.999990
   27 Pt     8.415900     1.619638     4.581048     0.665455     1.753044     0.999970
   28 C      6.567815     3.664532     6.407784    -0.779214     1.746623     0.999869
   29 C      7.256033     2.799955     7.391496    -1.038050     1.729320     0.999599
   30 H      5.786007     4.304255     6.845544    -2.856435     1.716835     0.999996
   31 H      7.856680     1.993168     6.934728    -2.517516     1.770948     0.999821
   32 H      6.532304     2.378126     8.109672    -3.893220     1.683687     0.998533
   33 H      7.947294     3.450290     7.966704    -3.672308     1.692595     0.999060
 
 2020/09/17  00:54:07
