   34
jmolscript: load "" {1 1 1} spacegroup "x,y,z" unitcell [{      8.415900     0.000000     0.000000 }, {      4.207950     7.288380     0.000000 }, {      0.000000     0.000000    24.000000 }]
Pt     0.000000     0.000000     0.000000    -0.059310
Pt     2.805301     4.858922     0.000000    -0.034733
Pt     1.402649     2.429458     0.000000    -0.037495
Pt     2.805297     0.000000     0.000000    -0.037017
Pt     5.610599     4.858922     0.000000    -0.027437
Pt     4.207946     2.429458     0.000000    -0.029705
Pt     5.610603     0.000000     0.000000    -0.033289
Pt     8.415904     4.858922     0.000000    -0.040829
Pt     7.013251     2.429458     0.000000    -0.027322
Pt     4.207950     5.668742     2.290536     0.060766
Pt     2.805301     3.239284     2.290536     0.041058
Pt     1.402649     0.809819     2.290536     0.087880
Pt     7.013247     5.668742     2.290536     0.062980
Pt     5.610599     3.239284     2.290536    -0.001474
Pt     4.207946     0.809819     2.290536     0.043729
Pt     9.818553     5.668742     2.290536     0.086976
Pt     8.415904     3.239284     2.290536     0.054369
Pt     7.013251     0.809819     2.290536     0.054148
Pt     5.610603     6.478568     4.581048    -0.183985
Pt     4.207950     4.049103     4.581048     0.060868
Pt     2.805297     1.619638     4.581048    -0.000149
Pt     8.415900     6.478568     4.581048    -0.113292
Pt     7.013247     4.049103     4.581048     0.123578
Pt     5.610603     1.619638     4.581048     0.065966
Pt    11.221206     6.478568     4.581048    -0.099743
Pt     9.818553     4.049103     4.581048    -0.085138
Pt     8.415900     1.619638     4.581048    -0.090391
C      5.663716     3.305586     7.230480     0.065771
C      4.793023     2.779628     6.118368    -0.250941
O      6.758738     4.171162     6.818832    -0.320855
H      5.039483     3.863177     7.950264     0.099923
H      6.140615     2.457124     7.747584     0.112020
H      6.428624     5.100620     6.797112     0.327098
H      3.954202     2.251293     6.618840     0.125975
 
 Chargemol version 3.5 September 26, 2017.
See ddec.sourceforge.net for latest version.
 
Computational parameters:
Number of radial integration shells =    100
Cutoff radius (pm) =    500
Error in the integrated total number of electrons before renormalization (e) =    2.5283E-05
Charge convergence tolerance =    1.0000E-05
Minimum radius for electron cloud penetration fitting (pm) =    200
Minimum decay exponent for electron density of buried atom tails =   1.7500
Maximum decay exponent for electron density of buried atom tails =  2.5000
Number of iterations to convergence =      7
 
The following XYZ coordinates are in angstroms. The atomic dipoles and quadrupoles are in atomic units.
atom number, atomic symbol, x, y, z, net_charge, dipole_x, dipole_y, dipole_z, dipole_mag, Qxy, Qxz, Qyz,Q(x^2-y^2), Q(3z^2 - R^2), three eigenvalues of traceless quadrupole moment tensor
    1 Pt     0.000000     0.000000     0.000000    -0.059310    -0.008085    -0.004234    -0.102225     0.102632     0.001745     0.015258     0.009728     0.002504     0.047831    -0.016104    -0.010063     0.026168
    2 Pt     2.805301     4.858922     0.000000    -0.034733     0.000437    -0.000152    -0.107123     0.107124     0.003988     0.005283    -0.005177    -0.003428     0.153740    -0.030610    -0.021308     0.051918
    3 Pt     1.402649     2.429458     0.000000    -0.037495     0.006393    -0.001818    -0.109856     0.110057    -0.000738    -0.008605     0.004226    -0.002785     0.149757    -0.027331    -0.023792     0.051123
    4 Pt     2.805297     0.000000     0.000000    -0.037017     0.003001     0.004517    -0.110693     0.110826    -0.002469    -0.004179    -0.004381     0.002118     0.153149    -0.028658    -0.022853     0.051510
    5 Pt     5.610599     4.858922     0.000000    -0.027437     0.001920    -0.000373    -0.105117     0.105135    -0.003360    -0.002756    -0.010568     0.001664     0.183751    -0.035154    -0.027346     0.062501
    6 Pt     4.207946     2.429458     0.000000    -0.029705    -0.003442    -0.002087    -0.102864     0.102943    -0.001106     0.010985     0.007737    -0.000552     0.205321    -0.037068    -0.033083     0.070152
    7 Pt     5.610603     0.000000     0.000000    -0.033289    -0.000059     0.000335    -0.107829     0.107829     0.000677    -0.000164     0.007178     0.009916     0.163576    -0.032855    -0.022260     0.055116
    8 Pt     8.415904     4.858922     0.000000    -0.040829    -0.003113    -0.002269    -0.105754     0.105824     0.000459    -0.002890    -0.003117    -0.000042     0.155911    -0.026444    -0.025758     0.052203
    9 Pt     7.013251     2.429458     0.000000    -0.027322     0.001259     0.002146    -0.103184     0.103214    -0.000746    -0.009575     0.002335    -0.006407     0.179876    -0.034192    -0.026807     0.060998
   10 Pt     4.207950     5.668742     2.290536     0.060766     0.006717     0.026817    -0.021563     0.035060    -0.000766     0.002521     0.035250    -0.013451     0.079527    -0.029366    -0.019595     0.048961
   11 Pt     2.805301     3.239284     2.290536     0.041058    -0.011495    -0.004115    -0.016631     0.020632    -0.002713    -0.022063     0.003824     0.014632     0.055671    -0.017086    -0.015984     0.033070
   12 Pt     1.402649     0.809819     2.290536     0.087880    -0.005858    -0.005907     0.011851     0.014479     0.002090    -0.006210    -0.007590     0.000860     0.102736    -0.019374    -0.016747     0.036121
   13 Pt     7.013247     5.668742     2.290536     0.062980    -0.001065     0.019465    -0.009193     0.021553     0.004792     0.001090     0.025705    -0.004213     0.085495    -0.026120    -0.014989     0.041109
   14 Pt     5.610599     3.239284     2.290536    -0.001474    -0.006926    -0.004517    -0.041683     0.042496     0.004003    -0.006185    -0.003347     0.003939     0.049755    -0.012762    -0.006009     0.018771
   15 Pt     4.207946     0.809819     2.290536     0.043729    -0.009067    -0.008161    -0.014215     0.018731     0.004788    -0.008138    -0.023073    -0.010797     0.060120    -0.018456    -0.017161     0.035617
   16 Pt     9.818553     5.668742     2.290536     0.086976    -0.003135    -0.001594     0.008651     0.009339    -0.004181    -0.002998    -0.000479    -0.006147     0.115156    -0.024515    -0.014019     0.038534
   17 Pt     8.415904     3.239284     2.290536     0.054369     0.018313    -0.009664    -0.020715     0.029290    -0.000664     0.019486    -0.006094     0.015023     0.070652    -0.020652    -0.013545     0.034197
   18 Pt     7.013251     0.809819     2.290536     0.054148     0.023878    -0.007913    -0.025438     0.035776    -0.006560     0.027753    -0.018433     0.003797     0.071021    -0.027024    -0.018570     0.045594
   19 Pt     5.610603     6.478568     4.581048    -0.183985    -0.025704     0.043790    -0.022635     0.055593    -0.014393    -0.018200     0.010859     0.041055    -0.289181    -0.099057     0.023312     0.075745
   20 Pt     4.207950     4.049103     4.581048     0.060868    -0.013725     0.008244    -0.052472     0.054860    -0.048591     0.050512    -0.103095    -0.057307    -0.092029    -0.105541    -0.040577     0.146119
   21 Pt     2.805297     1.619638     4.581048    -0.000149     0.032275     0.015905     0.081399     0.088997     0.025212     0.073038     0.052611     0.025958    -0.082177    -0.089335    -0.014356     0.103691
   22 Pt     8.415900     6.478568     4.581048    -0.113292     0.013397    -0.011446     0.062209     0.064657    -0.015767     0.021425    -0.027060     0.002090     0.015231    -0.026943    -0.016791     0.043734
   23 Pt     7.013247     4.049103     4.581048     0.123578     0.001943    -0.013261     0.103214     0.104081     0.030313    -0.013376    -0.043634     0.028929     0.343910    -0.095487    -0.031180     0.126667
   24 Pt     5.610603     1.619638     4.581048     0.065966    -0.000848    -0.020717    -0.039595     0.044695    -0.044350    -0.044210     0.091509    -0.049692    -0.067945    -0.090956    -0.038740     0.129696
   25 Pt    11.221206     6.478568     4.581048    -0.099743     0.003807     0.001117     0.070861     0.070972     0.032298    -0.017072    -0.004052     0.045417    -0.062219    -0.031608    -0.022143     0.053751
   26 Pt     9.818553     4.049103     4.581048    -0.085138    -0.013426     0.012681     0.095208     0.096983    -0.001367    -0.030965     0.005668    -0.029295     0.118110    -0.045626    -0.005623     0.051249
   27 Pt     8.415900     1.619638     4.581048    -0.090391     0.013712    -0.016497     0.081011     0.083803     0.001672    -0.022516     0.041488    -0.060263     0.069007    -0.052445    -0.012156     0.064601
   28 C      5.663716     3.305586     7.230480     0.065771     0.058615     0.037542    -0.099342     0.121302     0.039596    -0.043947    -0.013982     0.054376    -0.150522    -0.066450    -0.021640     0.088091
   29 C      4.793023     2.779628     6.118368    -0.250941     0.026343     0.008972     0.006690     0.028622    -0.011342    -0.011933    -0.007668     0.006906    -0.045289    -0.024421     0.004123     0.020298
   30 O      6.758738     4.171162     6.818832    -0.320855    -0.087947    -0.090083    -0.036182     0.130991     0.051873    -0.069292    -0.004991    -0.108978    -0.087909    -0.111130     0.012347     0.098783
   31 H      5.039483     3.863177     7.950264     0.099923    -0.035330     0.027160     0.025515     0.051351     0.006699    -0.006740     0.008718     0.006187    -0.016697    -0.016087     0.005802     0.010285
   32 H      6.140615     2.457124     7.747584     0.112020     0.026443    -0.042958     0.013337     0.052177     0.005879     0.004945    -0.010115     0.005873    -0.025548    -0.017068     0.006115     0.010953
   33 H      6.428624     5.100620     6.797112     0.327098    -0.007849     0.035990     0.008263     0.037751     0.002865    -0.009028     0.014946    -0.008669    -0.007709    -0.019035     0.001449     0.017586
   34 H      3.954202     2.251293     6.618840     0.125975    -0.036796    -0.023108     0.029282     0.052396     0.001198    -0.004468    -0.004182     0.003087     0.031772    -0.007801    -0.005030     0.012831
 
The sperically averaged electron density of each atom fit to a function of the form exp(a - br) for r >=rmin_cloud_penetration
atom number,atomic symbol, x, y, z, a, b, Rsquared where a and b are in atomic units and Rsquared is the squared correlation coefficient
    1 Pt     0.000000     0.000000     0.000000     0.625379     1.730465     0.999921
    2 Pt     2.805301     4.858922     0.000000     0.603275     1.729343     0.999925
    3 Pt     1.402649     2.429458     0.000000     0.605301     1.729311     0.999925
    4 Pt     2.805297     0.000000     0.000000     0.604433     1.729469     0.999923
    5 Pt     5.610599     4.858922     0.000000     0.600262     1.729227     0.999927
    6 Pt     4.207946     2.429458     0.000000     0.605078     1.729872     0.999924
    7 Pt     5.610603     0.000000     0.000000     0.601747     1.729315     0.999925
    8 Pt     8.415904     4.858922     0.000000     0.607331     1.729190     0.999928
    9 Pt     7.013251     2.429458     0.000000     0.600606     1.729146     0.999928
   10 Pt     4.207950     5.668742     2.290536     0.648948     1.750283     0.999998
   11 Pt     2.805301     3.239284     2.290536     0.663090     1.752675     0.999996
   12 Pt     1.402649     0.809819     2.290536     0.628025     1.749822     0.999996
   13 Pt     7.013247     5.668742     2.290536     0.660087     1.752692     0.999997
   14 Pt     5.610599     3.239284     2.290536     0.687665     1.754780     0.999994
   15 Pt     4.207946     0.809819     2.290536     0.658766     1.752134     0.999996
   16 Pt     9.818553     5.668742     2.290536     0.650751     1.752144     0.999994
   17 Pt     8.415904     3.239284     2.290536     0.674196     1.755131     0.999996
   18 Pt     7.013251     0.809819     2.290536     0.655930     1.751255     0.999998
   19 Pt     5.610603     6.478568     4.581048     0.846078     1.757277     0.999988
   20 Pt     4.207950     4.049103     4.581048     0.600419     1.752621     0.999973
   21 Pt     2.805297     1.619638     4.581048     0.718453     1.758554     0.999992
   22 Pt     8.415900     6.478568     4.581048     0.783685     1.756019     0.999991
   23 Pt     7.013247     4.049103     4.581048     0.525149     1.751007     0.999980
   24 Pt     5.610603     1.619638     4.581048     0.580632     1.752093     0.999965
   25 Pt    11.221206     6.478568     4.581048     0.795816     1.750225     0.999996
   26 Pt     9.818553     4.049103     4.581048     0.742039     1.751954     0.999989
   27 Pt     8.415900     1.619638     4.581048     0.756200     1.751376     0.999990
   28 C      5.663716     3.305586     7.230480    -1.211938     1.777638     0.998000
   29 C      4.793023     2.779628     6.118368    -0.541498     1.744019     0.999995
   30 O      6.758738     4.171162     6.818832    -1.349244     1.738796     0.999878
   31 H      5.039483     3.863177     7.950264    -3.611108     1.688792     0.998277
   32 H      6.140615     2.457124     7.747584    -3.359890     1.701031     0.999252
   33 H      6.428624     5.100620     6.797112    -2.729001     1.764668     0.999883
   34 H      3.954202     2.251293     6.618840    -2.670732     1.728984     0.999980
 
 2020/09/16  03:46:08
