   35
jmolscript: load "" {1 1 1} spacegroup "x,y,z" unitcell [{      8.415900     0.000000     0.000000 }, {      4.207950     7.288380     0.000000 }, {      0.000000     0.000000    24.000000 }]
Pt     0.000000     0.000000     0.000000    -0.046071
Pt     2.805301     4.858922     0.000000    -0.036195
Pt     1.402649     2.429458     0.000000    -0.037829
Pt     2.805297     0.000000     0.000000    -0.028375
Pt     5.610599     4.858922     0.000000    -0.026743
Pt     4.207946     2.429458     0.000000    -0.038789
Pt     5.610603     0.000000     0.000000    -0.025455
Pt     8.415904     4.858922     0.000000    -0.025660
Pt     7.013251     2.429458     0.000000    -0.030876
Pt     4.207950     5.668742     2.290536     0.072951
Pt     2.805301     3.239284     2.290536     0.067756
Pt     1.402649     0.809819     2.290536     0.079479
Pt     7.013247     5.668742     2.290536     0.009443
Pt     5.610599     3.239284     2.290536     0.040371
Pt     4.207946     0.809819     2.290536     0.026600
Pt     9.818553     5.668742     2.290536     0.020249
Pt     8.415904     3.239284     2.290536     0.041942
Pt     7.013251     0.809819     2.290536     0.073736
Pt     5.610603     6.478568     4.581048    -0.098355
Pt     4.207950     4.049103     4.581048    -0.020060
Pt     2.805297     1.619638     4.581048    -0.062629
Pt     8.415900     6.478568     4.581048     0.196934
Pt     7.013247     4.049103     4.581048     0.019244
Pt     5.610603     1.619638     4.581048    -0.033904
Pt    11.221206     6.478568     4.581048    -0.053078
Pt     9.818553     4.049103     4.581048    -0.042632
Pt     8.415900     1.619638     4.581048    -0.079496
C      8.478418     4.976105     7.011720     0.008194
C      7.217842     4.165273     6.698376     0.083867
O      8.421669     6.294427     6.596232    -0.300356
O      6.086661     4.715691     7.280136    -0.376109
H      8.668423     4.973219     8.107104     0.118998
H      9.375792     4.412662     6.540672     0.063176
H      7.297364     3.117058     7.023240     0.092483
H      6.115477     5.687378     7.111920     0.347191
 
 Chargemol version 3.5 September 26, 2017.
See ddec.sourceforge.net for latest version.
 
Computational parameters:
Number of radial integration shells =    100
Cutoff radius (pm) =    500
Error in the integrated total number of electrons before renormalization (e) =    4.7534E-05
Charge convergence tolerance =    1.0000E-05
Minimum radius for electron cloud penetration fitting (pm) =    200
Minimum decay exponent for electron density of buried atom tails =   1.7500
Maximum decay exponent for electron density of buried atom tails =  2.5000
Number of iterations to convergence =      7
 
The following XYZ coordinates are in angstroms. The atomic dipoles and quadrupoles are in atomic units.
atom number, atomic symbol, x, y, z, net_charge, dipole_x, dipole_y, dipole_z, dipole_mag, Qxy, Qxz, Qyz,Q(x^2-y^2), Q(3z^2 - R^2), three eigenvalues of traceless quadrupole moment tensor
    1 Pt     0.000000     0.000000     0.000000    -0.046071     0.000828     0.000313    -0.113388     0.113391     0.001662    -0.000062    -0.001596    -0.003169     0.136404    -0.025035    -0.020471     0.045506
    2 Pt     2.805301     4.858922     0.000000    -0.036195     0.000051    -0.000537    -0.107980     0.107981     0.002120    -0.005243    -0.001331    -0.008966     0.152405    -0.030647    -0.020523     0.051171
    3 Pt     1.402649     2.429458     0.000000    -0.037829    -0.002947     0.001740    -0.107641     0.107695     0.005389     0.006318     0.000109    -0.001970     0.143686    -0.029726    -0.018718     0.048444
    4 Pt     2.805297     0.000000     0.000000    -0.028375    -0.000145    -0.001391    -0.105304     0.105313    -0.000785     0.009913    -0.002860     0.007094     0.188984    -0.035167    -0.028982     0.064149
    5 Pt     5.610599     4.858922     0.000000    -0.026743    -0.001643     0.000552    -0.109992     0.110006    -0.001881     0.009731    -0.003160    -0.003107     0.197315    -0.035925    -0.030895     0.066820
    6 Pt     4.207946     2.429458     0.000000    -0.038789     0.006355    -0.001049    -0.110085     0.110273    -0.003487    -0.013660     0.001324     0.000061     0.173959    -0.033455    -0.026665     0.060120
    7 Pt     5.610603     0.000000     0.000000    -0.025455    -0.000771    -0.001148    -0.105902     0.105911    -0.001961    -0.010291    -0.003041     0.006849     0.202270    -0.037986    -0.030585     0.068571
    8 Pt     8.415904     4.858922     0.000000    -0.025660     0.001666     0.001559    -0.100456     0.100482    -0.000915    -0.001678     0.003745    -0.001341     0.213838    -0.036774    -0.034664     0.071438
    9 Pt     7.013251     2.429458     0.000000    -0.030876     0.000725    -0.000942    -0.109156     0.109163    -0.005134    -0.001496     0.008482     0.002427     0.185151    -0.036481    -0.026038     0.062519
   10 Pt     4.207950     5.668742     2.290536     0.072951     0.000302     0.003108     0.000813     0.003226     0.000410     0.000740     0.003413     0.008577     0.085746    -0.018840    -0.010003     0.028843
   11 Pt     2.805301     3.239284     2.290536     0.067756     0.002286    -0.003437    -0.003689     0.005536    -0.009517    -0.003510    -0.002037     0.002333     0.074009    -0.022240    -0.002805     0.025044
   12 Pt     1.402649     0.809819     2.290536     0.079479     0.001646    -0.002277     0.004635     0.005420     0.000792    -0.002164     0.000637    -0.002489     0.092762    -0.017042    -0.013985     0.031027
   13 Pt     7.013247     5.668742     2.290536     0.009443    -0.018836     0.002788    -0.045201     0.049048    -0.000814    -0.029943     0.001279    -0.001451     0.051350    -0.028807    -0.007884     0.036691
   14 Pt     5.610599     3.239284     2.290536     0.040371    -0.015038    -0.010909    -0.020039     0.027326     0.005889    -0.014528    -0.009916    -0.008950     0.071148    -0.021600    -0.010081     0.031681
   15 Pt     4.207946     0.809819     2.290536     0.026600    -0.000581     0.029892    -0.034750     0.045842     0.003235    -0.001770     0.036220    -0.004447     0.041153    -0.033369    -0.008543     0.041912
   16 Pt     9.818553     5.668742     2.290536     0.020249     0.019914    -0.011413    -0.039627     0.045795     0.004002     0.029652    -0.010196     0.001575     0.045530    -0.031166    -0.005491     0.036657
   17 Pt     8.415904     3.239284     2.290536     0.041942     0.011505    -0.005247    -0.020653     0.024216     0.001490     0.012748    -0.014180     0.004298     0.078837    -0.022632    -0.011138     0.033770
   18 Pt     7.013251     0.809819     2.290536     0.073736    -0.001178    -0.001451    -0.000830     0.002045    -0.002772     0.004188     0.000543     0.002332     0.085963    -0.017507    -0.011564     0.029071
   19 Pt     5.610603     6.478568     4.581048    -0.098355    -0.015992     0.006055     0.041688     0.045059     0.004977     0.013688    -0.015717    -0.022692    -0.092647    -0.039688     0.008808     0.030881
   20 Pt     4.207950     4.049103     4.581048    -0.020060     0.010712    -0.000238     0.126655     0.127108    -0.003645     0.029310    -0.001069    -0.009629     0.200497    -0.046450    -0.028043     0.074493
   21 Pt     2.805297     1.619638     4.581048    -0.062629     0.001778    -0.002825     0.117376     0.117424    -0.000361     0.034559    -0.033884     0.023396     0.211271    -0.058721    -0.030748     0.089468
   22 Pt     8.415900     6.478568     4.581048     0.196934     0.006298     0.025054     0.069829     0.074454    -0.006923     0.019538    -0.009512    -0.019204     0.354075    -0.072205    -0.048453     0.120658
   23 Pt     7.013247     4.049103     4.581048     0.019244    -0.025688    -0.012864    -0.092340     0.096706    -0.007133     0.002413     0.015923     0.032685    -0.045141    -0.028940     0.003561     0.025379
   24 Pt     5.610603     1.619638     4.581048    -0.033904    -0.007973    -0.004561     0.131893     0.132212     0.001558    -0.021682    -0.020694    -0.004777     0.303987    -0.056344    -0.050734     0.107078
   25 Pt    11.221206     6.478568     4.581048    -0.053078    -0.001243     0.003851     0.115462     0.115533    -0.001357    -0.056306    -0.009200    -0.000299     0.221695    -0.061605    -0.036326     0.097931
   26 Pt     9.818553     4.049103     4.581048    -0.042632    -0.001742    -0.000924     0.041554     0.041601     0.004749    -0.047098     0.042238    -0.009768     0.052913    -0.063631    -0.003474     0.067105
   27 Pt     8.415900     1.619638     4.581048    -0.079496     0.006968    -0.008047     0.069500     0.070310     0.000626    -0.008707     0.024429     0.003006     0.004080    -0.026441     0.000880     0.025561
   28 C      8.478418     4.976105     7.011720     0.008194    -0.015521     0.080467    -0.034319     0.088846     0.002467    -0.014480    -0.005081    -0.020308    -0.037223    -0.023436     0.004773     0.018662
   29 C      7.217842     4.165273     6.698376     0.083867    -0.078622     0.042637     0.030104     0.094369    -0.001615    -0.015720    -0.018175     0.033924    -0.002673    -0.030729     0.002709     0.028019
   30 O      8.421669     6.294427     6.596232    -0.300356     0.017248    -0.124916    -0.040450     0.132430    -0.008544    -0.001361    -0.063447    -0.168807     0.226332    -0.122676    -0.003517     0.126192
   31 O      6.086661     4.715691     7.280136    -0.376109     0.087393    -0.053456    -0.045496     0.112094    -0.077146    -0.047495     0.024894    -0.081793    -0.222913    -0.099435    -0.035282     0.134717
   32 H      8.668423     4.973219     8.107104     0.118998     0.007118     0.007089     0.045365     0.046464     0.004189     0.003234    -0.001011    -0.015045    -0.005983    -0.009202    -0.000408     0.009610
   33 H      9.375792     4.412662     6.540672     0.063176     0.028555    -0.012463    -0.006965     0.031925     0.005365     0.004856    -0.006084    -0.005643    -0.017760    -0.012154     0.002494     0.009660
   34 H      7.297364     3.117058     7.023240     0.092483    -0.001417    -0.060119     0.027377     0.066074    -0.000048    -0.005828    -0.008606     0.008175    -0.019901    -0.013891     0.003336     0.010555
   35 H      6.115477     5.687378     7.111920     0.347191    -0.005098     0.036175     0.003094     0.036663    -0.010309    -0.009470     0.012524    -0.008649    -0.018506    -0.014765    -0.007997     0.022762
 
The sperically averaged electron density of each atom fit to a function of the form exp(a - br) for r >=rmin_cloud_penetration
atom number,atomic symbol, x, y, z, a, b, Rsquared where a and b are in atomic units and Rsquared is the squared correlation coefficient
    1 Pt     0.000000     0.000000     0.000000     0.624063     1.732871     0.999925
    2 Pt     2.805301     4.858922     0.000000     0.614149     1.731525     0.999931
    3 Pt     1.402649     2.429458     0.000000     0.616531     1.731707     0.999930
    4 Pt     2.805297     0.000000     0.000000     0.610077     1.731545     0.999931
    5 Pt     5.610599     4.858922     0.000000     0.607161     1.731734     0.999927
    6 Pt     4.207946     2.429458     0.000000     0.619585     1.731950     0.999931
    7 Pt     5.610603     0.000000     0.000000     0.605772     1.731350     0.999930
    8 Pt     8.415904     4.858922     0.000000     0.607744     1.731072     0.999935
    9 Pt     7.013251     2.429458     0.000000     0.609274     1.731618     0.999929
   10 Pt     4.207950     5.668742     2.290536     0.650099     1.751986     0.999996
   11 Pt     2.805301     3.239284     2.290536     0.652207     1.752634     0.999997
   12 Pt     1.402649     0.809819     2.290536     0.645983     1.751274     0.999996
   13 Pt     7.013247     5.668742     2.290536     0.687088     1.754257     0.999997
   14 Pt     5.610599     3.239284     2.290536     0.663156     1.752436     0.999997
   15 Pt     4.207946     0.809819     2.290536     0.686188     1.755206     0.999996
   16 Pt     9.818553     5.668742     2.290536     0.692967     1.755869     0.999996
   17 Pt     8.415904     3.239284     2.290536     0.666948     1.752560     0.999998
   18 Pt     7.013251     0.809819     2.290536     0.656235     1.752714     0.999996
   19 Pt     5.610603     6.478568     4.581048     0.838175     1.776239     0.999978
   20 Pt     4.207950     4.049103     4.581048     0.792437     1.776540     0.999972
   21 Pt     2.805297     1.619638     4.581048     0.853957     1.778585     0.999977
   22 Pt     8.415900     6.478568     4.581048     0.564682     1.770716     0.999982
   23 Pt     7.013247     4.049103     4.581048     0.637259     1.766822     0.999968
   24 Pt     5.610603     1.619638     4.581048     0.726359     1.767979     0.999958
   25 Pt    11.221206     6.478568     4.581048     0.840546     1.780060     0.999984
   26 Pt     9.818553     4.049103     4.581048     0.713559     1.767141     0.999973
   27 Pt     8.415900     1.619638     4.581048     0.889632     1.784147     0.999984
   28 C      8.478418     4.976105     7.011720    -0.837351     1.813848     0.999407
   29 C      7.217842     4.165273     6.698376    -0.704975     1.831144     0.999162
   30 O      8.421669     6.294427     6.596232    -1.121267     1.790212     0.999870
   31 O      6.086661     4.715691     7.280136    -1.486288     1.762557     0.999642
   32 H      8.668423     4.973219     8.107104    -3.774869     1.683334     0.997067
   33 H      9.375792     4.412662     6.540672    -2.196490     1.801821     0.999880
   34 H      7.297364     3.117058     7.023240    -2.791807     1.744328     0.999952
   35 H      6.115477     5.687378     7.111920    -2.474754     1.871248     0.999040
 
 2020/09/17  14:05:40
