   34
jmolscript: load "" {1 1 1} spacegroup "x,y,z" unitcell [{      8.415900     0.000000     0.000000 }, {      4.207950     7.288380     0.000000 }, {      0.000000     0.000000    24.000000 }]
Pt     0.000000     0.000000     0.000000    -0.041968
Pt     2.805301     4.858922     0.000000    -0.037604
Pt     1.402649     2.429458     0.000000    -0.035500
Pt     2.805297     0.000000     0.000000    -0.036661
Pt     5.610599     4.858922     0.000000    -0.028472
Pt     4.207946     2.429458     0.000000    -0.039039
Pt     5.610603     0.000000     0.000000    -0.038078
Pt     8.415904     4.858922     0.000000    -0.030158
Pt     7.013251     2.429458     0.000000    -0.028351
Pt     4.207950     5.668742     2.290536     0.065670
Pt     2.805301     3.239284     2.290536     0.073702
Pt     1.402649     0.809819     2.290536     0.069189
Pt     7.013247     5.668742     2.290536     0.028238
Pt     5.610599     3.239284     2.290536     0.034046
Pt     4.207946     0.809819     2.290536     0.072755
Pt     9.818553     5.668742     2.290536     0.073204
Pt     8.415904     3.239284     2.290536     0.037670
Pt     7.013251     0.809819     2.290536     0.072646
Pt     5.610603     6.478568     4.581048     0.000190
Pt     4.207950     4.049103     4.581048    -0.044604
Pt     2.805297     1.619638     4.581048    -0.084033
Pt     8.415900     6.478568     4.581048    -0.036502
Pt     7.013247     4.049103     4.581048     0.112494
Pt     5.610603     1.619638     4.581048    -0.051999
Pt    11.221206     6.478568     4.581048    -0.086685
Pt     9.818553     4.049103     4.581048    -0.047558
Pt     8.415900     1.619638     4.581048    -0.045267
C      7.093160     4.034330     6.687552    -0.199520
C      6.462363     5.230236     7.368480    -0.318401
H      8.168430     3.961118     6.913416     0.109069
H      6.600300     3.089187     6.962280     0.111072
H      6.962886     6.173753     7.088640     0.113921
H      5.387131     5.319869     7.135896     0.115775
H      6.559016     5.118586     8.466408     0.140759
 
 Chargemol version 3.5 September 26, 2017.
See ddec.sourceforge.net for latest version.
 
Computational parameters:
Number of radial integration shells =    100
Cutoff radius (pm) =    500
Error in the integrated total number of electrons before renormalization (e) =    4.4591E-05
Charge convergence tolerance =    1.0000E-05
Minimum radius for electron cloud penetration fitting (pm) =    200
Minimum decay exponent for electron density of buried atom tails =   1.7500
Maximum decay exponent for electron density of buried atom tails =  2.5000
Number of iterations to convergence =      7
 
The following XYZ coordinates are in angstroms. The atomic dipoles and quadrupoles are in atomic units.
atom number, atomic symbol, x, y, z, net_charge, dipole_x, dipole_y, dipole_z, dipole_mag, Qxy, Qxz, Qyz,Q(x^2-y^2), Q(3z^2 - R^2), three eigenvalues of traceless quadrupole moment tensor
    1 Pt     0.000000     0.000000     0.000000    -0.041968     0.000676    -0.000619    -0.111969     0.111972     0.002176     0.000243     0.000393     0.002562     0.129658    -0.024135    -0.019088     0.043223
    2 Pt     2.805301     4.858922     0.000000    -0.037604     0.000368    -0.000401    -0.110237     0.110238     0.001859     0.001397    -0.000336    -0.006986     0.136734    -0.026774    -0.018832     0.045606
    3 Pt     1.402649     2.429458     0.000000    -0.035500    -0.002349     0.001920    -0.109763     0.109805     0.002757     0.003966    -0.003647    -0.004793     0.147055    -0.028502    -0.020894     0.049396
    4 Pt     2.805297     0.000000     0.000000    -0.036661    -0.000539    -0.002577    -0.107469     0.107501    -0.000453     0.000591     0.002710     0.005847     0.135648    -0.025673    -0.019652     0.045325
    5 Pt     5.610599     4.858922     0.000000    -0.028472    -0.000879     0.001221    -0.105695     0.105706    -0.001153     0.007181    -0.005225    -0.002114     0.168809    -0.029988    -0.027214     0.057202
    6 Pt     4.207946     2.429458     0.000000    -0.039039     0.002649     0.001453    -0.108994     0.109036    -0.001677    -0.002422    -0.002180    -0.001299     0.145528    -0.026193    -0.022459     0.048652
    7 Pt     5.610603     0.000000     0.000000    -0.038078    -0.000075     0.000920    -0.110723     0.110727    -0.002168    -0.001221    -0.000074     0.005084     0.134757    -0.025804    -0.019138     0.044942
    8 Pt     8.415904     4.858922     0.000000    -0.030158     0.000364     0.000833    -0.107671     0.107675    -0.000712    -0.007783    -0.004366    -0.000029     0.186253    -0.032559    -0.030368     0.062926
    9 Pt     7.013251     2.429458     0.000000    -0.028351    -0.000805    -0.001572    -0.108987     0.109001    -0.001194    -0.000173     0.009625    -0.000134     0.179643    -0.031701    -0.029201     0.060902
   10 Pt     4.207950     5.668742     2.290536     0.065670    -0.002667    -0.000574    -0.005412     0.006060    -0.000027    -0.008903    -0.001236    -0.007699     0.085944    -0.019816    -0.010504     0.030319
   11 Pt     2.805301     3.239284     2.290536     0.073702     0.000394    -0.000605     0.005375     0.005423     0.001984     0.000341    -0.001265     0.008645     0.098783    -0.021252    -0.011708     0.032960
   12 Pt     1.402649     0.809819     2.290536     0.069189     0.000129     0.002481    -0.001155     0.002740    -0.001398     0.002936     0.006018    -0.001034     0.091157    -0.017444    -0.013890     0.031334
   13 Pt     7.013247     5.668742     2.290536     0.028238     0.002723     0.020190    -0.032338     0.038220     0.002445     0.004207     0.022652     0.001338     0.067197    -0.023145    -0.011049     0.034195
   14 Pt     5.610599     3.239284     2.290536     0.034046    -0.019585    -0.010924    -0.026132     0.034435    -0.001429    -0.023049    -0.014243    -0.002422     0.069673    -0.027824    -0.009785     0.037609
   15 Pt     4.207946     0.809819     2.290536     0.072755    -0.000620     0.000285     0.003614     0.003678     0.004497    -0.000592     0.000873    -0.004322     0.096547    -0.021098    -0.011106     0.032204
   16 Pt     9.818553     5.668742     2.290536     0.073204     0.000037     0.000310     0.000664     0.000733    -0.001900     0.004591     0.003006     0.000034     0.103876    -0.019745    -0.015435     0.035181
   17 Pt     8.415904     3.239284     2.290536     0.037670     0.018734    -0.010012    -0.024155     0.032166     0.000404     0.023101    -0.013366     0.001623     0.080076    -0.026696    -0.013354     0.040050
   18 Pt     7.013251     0.809819     2.290536     0.072646     0.000496    -0.001042    -0.000051     0.001155    -0.002862    -0.002463    -0.004171     0.004602     0.098259    -0.020486    -0.012708     0.033194
   19 Pt     5.610603     6.478568     4.581048     0.000190     0.002336    -0.000978     0.103119     0.103150    -0.003231     0.023790    -0.037680    -0.002475     0.124712    -0.041302    -0.024231     0.065533
   20 Pt     4.207950     4.049103     4.581048    -0.044604    -0.006834    -0.008391     0.095473     0.096085    -0.006401     0.044852     0.000849    -0.000336     0.129070    -0.046127    -0.019901     0.066028
   21 Pt     2.805297     1.619638     4.581048    -0.084033     0.002623     0.007882     0.084236     0.084644    -0.002897    -0.003307    -0.002618     0.008561     0.068431    -0.016882    -0.006425     0.023307
   22 Pt     8.415900     6.478568     4.581048    -0.036502     0.007649     0.000340     0.094820     0.095129     0.001211    -0.016461    -0.047640    -0.008684     0.116726    -0.045518    -0.023526     0.069044
   23 Pt     7.013247     4.049103     4.581048     0.112494    -0.001586    -0.002213    -0.039564     0.039657    -0.003001    -0.003311     0.021350    -0.005983     0.126210    -0.026428    -0.022680     0.049107
   24 Pt     5.610603     1.619638     4.581048    -0.051999    -0.004470    -0.005932     0.089684     0.089991    -0.007946     0.019134     0.023959     0.004449     0.075924    -0.036188    -0.004409     0.040597
   25 Pt    11.221206     6.478568     4.581048    -0.086685    -0.004822     0.002037     0.080080     0.080251    -0.001045     0.000508     0.001444    -0.015525     0.053684    -0.016790    -0.001218     0.018009
   26 Pt     9.818553     4.049103     4.581048    -0.047558     0.007824    -0.002073     0.089944     0.090308     0.000145    -0.034001     0.005109    -0.008233     0.072779    -0.035824    -0.008127     0.043951
   27 Pt     8.415900     1.619638     4.581048    -0.045267    -0.000603     0.001514     0.102724     0.102737     0.008419    -0.022386     0.034184     0.008238     0.166829    -0.052603    -0.018437     0.071040
   28 C      7.093160     4.034330     6.687552    -0.199520    -0.047038     0.084626     0.008049     0.097154     0.003191     0.006236    -0.007676     0.010105     0.115500    -0.026524    -0.013526     0.040049
   29 C      6.462363     5.230236     7.368480    -0.318401     0.040316    -0.078174    -0.051897     0.102127    -0.009046    -0.000757     0.002609    -0.012018    -0.084611    -0.028346     0.003252     0.025094
   30 H      8.168430     3.961118     6.913416     0.109069     0.045159     0.003548     0.015800     0.047975    -0.001260     0.006144     0.003179     0.004573    -0.005883    -0.007767     0.000374     0.007393
   31 H      6.600300     3.089187     6.962280     0.111072    -0.025776    -0.036469     0.017609     0.048005     0.001601    -0.005953    -0.003412    -0.004117    -0.006783    -0.007802     0.000429     0.007373
   32 H      6.962886     6.173753     7.088640     0.113921     0.019782     0.023226    -0.009829     0.032053    -0.000542    -0.001676     0.006147    -0.003142    -0.032131    -0.012766     0.003709     0.009057
   33 H      5.387131     5.319869     7.135896     0.115775    -0.030689    -0.003328    -0.008496     0.032017    -0.001101    -0.004819     0.003367     0.000014    -0.032496    -0.012643     0.004348     0.008294
   34 H      6.559016     5.118586     8.466408     0.140759     0.007002    -0.010008     0.023334     0.026338    -0.005250     0.000960    -0.001201    -0.006664     0.004650    -0.007001     0.001038     0.005963
 
The sperically averaged electron density of each atom fit to a function of the form exp(a - br) for r >=rmin_cloud_penetration
atom number,atomic symbol, x, y, z, a, b, Rsquared where a and b are in atomic units and Rsquared is the squared correlation coefficient
    1 Pt     0.000000     0.000000     0.000000     0.622680     1.732729     0.999928
    2 Pt     2.805301     4.858922     0.000000     0.615228     1.731702     0.999932
    3 Pt     1.402649     2.429458     0.000000     0.614749     1.731772     0.999932
    4 Pt     2.805297     0.000000     0.000000     0.615963     1.731647     0.999934
    5 Pt     5.610599     4.858922     0.000000     0.610000     1.731461     0.999934
    6 Pt     4.207946     2.429458     0.000000     0.621190     1.732100     0.999934
    7 Pt     5.610603     0.000000     0.000000     0.615764     1.731749     0.999932
    8 Pt     8.415904     4.858922     0.000000     0.609430     1.731251     0.999936
    9 Pt     7.013251     2.429458     0.000000     0.609393     1.731568     0.999933
   10 Pt     4.207950     5.668742     2.290536     0.659331     1.752904     0.999996
   11 Pt     2.805301     3.239284     2.290536     0.647749     1.751896     0.999996
   12 Pt     1.402649     0.809819     2.290536     0.651986     1.752302     0.999996
   13 Pt     7.013247     5.668742     2.290536     0.682028     1.755047     0.999996
   14 Pt     5.610599     3.239284     2.290536     0.675665     1.754115     0.999997
   15 Pt     4.207946     0.809819     2.290536     0.649829     1.752146     0.999996
   16 Pt     9.818553     5.668742     2.290536     0.656834     1.753019     0.999996
   17 Pt     8.415904     3.239284     2.290536     0.674630     1.754172     0.999997
   18 Pt     7.013251     0.809819     2.290536     0.654149     1.752326     0.999996
   19 Pt     5.610603     6.478568     4.581048     0.701122     1.765661     0.999975
   20 Pt     4.207950     4.049103     4.581048     0.728034     1.761687     0.999972
   21 Pt     2.805297     1.619638     4.581048     0.856737     1.771712     0.999993
   22 Pt     8.415900     6.478568     4.581048     0.712373     1.761568     0.999972
   23 Pt     7.013247     4.049103     4.581048     0.553398     1.760953     0.999980
   24 Pt     5.610603     1.619638     4.581048     0.775646     1.766695     0.999987
   25 Pt    11.221206     6.478568     4.581048     0.884004     1.775330     0.999984
   26 Pt     9.818553     4.049103     4.581048     0.766851     1.766676     0.999983
   27 Pt     8.415900     1.619638     4.581048     0.781056     1.769779     0.999993
   28 C      7.093160     4.034330     6.687552    -0.794402     1.743095     0.999867
   29 C      6.462363     5.230236     7.368480    -0.999437     1.740427     0.999705
   30 H      8.168430     3.961118     6.913416    -2.781795     1.745680     0.999939
   31 H      6.600300     3.089187     6.962280    -2.859870     1.736895     0.999955
   32 H      6.962886     6.173753     7.088640    -2.437872     1.810306     0.999741
   33 H      5.387131     5.319869     7.135896    -2.481949     1.807376     0.999756
   34 H      6.559016     5.118586     8.466408    -4.339954     1.691143     0.987829
 
 2020/09/16  19:32:56
