   35
jmolscript: load "" {1 1 1} spacegroup "x,y,z" unitcell [{      8.415900     0.000000     0.000000 }, {      4.207950     7.288380     0.000000 }, {      0.000000     0.000000    24.000000 }]
Pt     0.000000     0.000000     0.000000    -0.038596
Pt     2.805301     4.858922     0.000000    -0.026271
Pt     1.402649     2.429458     0.000000    -0.036737
Pt     2.805297     0.000000     0.000000    -0.037034
Pt     5.610599     4.858922     0.000000    -0.030399
Pt     4.207946     2.429458     0.000000    -0.029131
Pt     5.610603     0.000000     0.000000    -0.039310
Pt     8.415904     4.858922     0.000000    -0.043877
Pt     7.013251     2.429458     0.000000    -0.029211
Pt     4.207950     5.668742     2.290536     0.039430
Pt     2.805301     3.239284     2.290536     0.021733
Pt     1.402649     0.809819     2.290536     0.073338
Pt     7.013247     5.668742     2.290536     0.079994
Pt     5.610599     3.239284     2.290536     0.011021
Pt     4.207946     0.809819     2.290536     0.047301
Pt     9.818553     5.668742     2.290536     0.083389
Pt     8.415904     3.239284     2.290536     0.076957
Pt     7.013251     0.809819     2.290536     0.066017
Pt     5.610603     6.478568     4.581048    -0.084089
Pt     4.207950     4.049103     4.581048     0.176017
Pt     2.805297     1.619638     4.581048     0.028616
Pt     8.415900     6.478568     4.581048    -0.081091
Pt     7.013247     4.049103     4.581048    -0.041513
Pt     5.610603     1.619638     4.581048     0.068802
Pt    11.221206     6.478568     4.581048    -0.083860
Pt     9.818553     4.049103     4.581048    -0.060533
Pt     8.415900     1.619638     4.581048    -0.070309
C      5.305434     3.535083     7.417848     0.093152
C      6.030510     2.301663     7.928328    -0.379569
O      4.408173     3.130753     6.379656    -0.259515
H      6.023066     4.294095     7.047216     0.053467
H      4.689188     4.004528     8.208264     0.080463
H      6.724304     1.930692     7.151376     0.104279
H      5.308241     1.505568     8.163360     0.133111
H      6.610917     2.537639     8.834664     0.133959
 
 Chargemol version 3.5 September 26, 2017.
See ddec.sourceforge.net for latest version.
 
Computational parameters:
Number of radial integration shells =    100
Cutoff radius (pm) =    500
Error in the integrated total number of electrons before renormalization (e) =    5.9734E-05
Charge convergence tolerance =    1.0000E-05
Minimum radius for electron cloud penetration fitting (pm) =    200
Minimum decay exponent for electron density of buried atom tails =   1.7500
Maximum decay exponent for electron density of buried atom tails =  2.5000
Number of iterations to convergence =      7
 
The following XYZ coordinates are in angstroms. The atomic dipoles and quadrupoles are in atomic units.
atom number, atomic symbol, x, y, z, net_charge, dipole_x, dipole_y, dipole_z, dipole_mag, Qxy, Qxz, Qyz,Q(x^2-y^2), Q(3z^2 - R^2), three eigenvalues of traceless quadrupole moment tensor
    1 Pt     0.000000     0.000000     0.000000    -0.038596     0.001426    -0.001402    -0.122421     0.122437     0.000358    -0.000689     0.004814     0.005495     0.189109    -0.034530    -0.028749     0.063279
    2 Pt     2.805301     4.858922     0.000000    -0.026271     0.000776    -0.002402    -0.106131     0.106161     0.002562     0.007258    -0.007025     0.002203     0.191664    -0.035716    -0.029199     0.064915
    3 Pt     1.402649     2.429458     0.000000    -0.036737     0.003693     0.001507    -0.107049     0.107124    -0.000372     0.001132    -0.001271    -0.005034     0.151436    -0.027798    -0.022720     0.050517
    4 Pt     2.805297     0.000000     0.000000    -0.037034     0.001372     0.001387    -0.107839     0.107856    -0.002643     0.002591     0.001469     0.007205     0.135323    -0.027089    -0.018149     0.045238
    5 Pt     5.610599     4.858922     0.000000    -0.030399    -0.001292    -0.001567    -0.103459     0.103479    -0.000681    -0.004332    -0.008626     0.001495     0.175116    -0.031231    -0.028181     0.059412
    6 Pt     4.207946     2.429458     0.000000    -0.029131     0.000960     0.000069    -0.097326     0.097331    -0.000647    -0.000504     0.005524    -0.002110     0.177685    -0.030865    -0.028713     0.059578
    7 Pt     5.610603     0.000000     0.000000    -0.039310    -0.002679     0.003824    -0.104775     0.104879     0.003488     0.000370     0.000678     0.003755     0.131475    -0.025876    -0.017959     0.043834
    8 Pt     8.415904     4.858922     0.000000    -0.043877    -0.000531     0.000729    -0.109964     0.109967    -0.000675    -0.000372    -0.003179    -0.004040     0.136393    -0.024873    -0.020745     0.045618
    9 Pt     7.013251     2.429458     0.000000    -0.029211    -0.001495    -0.000193    -0.110757     0.110767     0.001461    -0.008338     0.001354    -0.000699     0.192450    -0.034160    -0.030720     0.064880
   10 Pt     4.207950     5.668742     2.290536     0.039430     0.001515     0.034221    -0.035388     0.049251    -0.000801    -0.000872     0.037246    -0.019865     0.058955    -0.028629    -0.019777     0.048406
   11 Pt     2.805301     3.239284     2.290536     0.021733    -0.015796    -0.008770    -0.031750     0.036531    -0.001667    -0.030529    -0.004343     0.003429     0.034725    -0.028522    -0.006881     0.035403
   12 Pt     1.402649     0.809819     2.290536     0.073338    -0.001542    -0.002586     0.004335     0.005278     0.007780    -0.004989    -0.004333    -0.001829     0.089967    -0.022843    -0.008281     0.031124
   13 Pt     7.013247     5.668742     2.290536     0.079994    -0.001326     0.000914     0.003949     0.004265     0.004173     0.004961     0.003435    -0.005373     0.105250    -0.022638    -0.013172     0.035810
   14 Pt     5.610599     3.239284     2.290536     0.011021     0.011193    -0.003091    -0.034014     0.035941     0.002267     0.024104    -0.001029    -0.001569     0.036599    -0.023596    -0.004991     0.028587
   15 Pt     4.207946     0.809819     2.290536     0.047301    -0.003297    -0.004326    -0.017614     0.018435     0.001347    -0.003084    -0.020079    -0.001938     0.045918    -0.018598    -0.008913     0.027512
   16 Pt     9.818553     5.668742     2.290536     0.083389     0.001569     0.000364     0.006599     0.006793    -0.002424    -0.003078     0.000428    -0.005725     0.111770    -0.022506    -0.014917     0.037423
   17 Pt     8.415904     3.239284     2.290536     0.076957     0.001644     0.001048     0.003389     0.003910    -0.000372     0.001934     0.001884     0.017275     0.104368    -0.026101    -0.008831     0.034932
   18 Pt     7.013251     0.809819     2.290536     0.066017     0.008190    -0.007354    -0.008126     0.013682    -0.012011     0.008452    -0.007695    -0.000441     0.082746    -0.025812    -0.005690     0.031502
   19 Pt     5.610603     6.478568     4.581048    -0.084089    -0.004294     0.015819     0.088620     0.090123    -0.017365    -0.004651    -0.012848     0.037495     0.138554    -0.050575     0.002459     0.048116
   20 Pt     4.207950     4.049103     4.581048     0.176017    -0.014426    -0.023474     0.068140     0.073500    -0.008651     0.010606    -0.088269    -0.021971     0.284075    -0.081165    -0.058834     0.139998
   21 Pt     2.805297     1.619638     4.581048     0.028616     0.022122     0.022718     0.163669     0.166712     0.013173     0.053832     0.049496    -0.014534     0.257251    -0.069653    -0.051488     0.121141
   22 Pt     8.415900     6.478568     4.581048    -0.081091     0.002968    -0.014305     0.092107     0.093258    -0.008302     0.006374     0.004352     0.023265     0.093858    -0.030541    -0.002002     0.032543
   23 Pt     7.013247     4.049103     4.581048    -0.041513     0.008256    -0.000033     0.083368     0.083776     0.009660    -0.025106    -0.023274     0.003922     0.066789    -0.025955    -0.020722     0.046677
   24 Pt     5.610603     1.619638     4.581048     0.068802    -0.027813     0.020086     0.138977     0.143149    -0.009655    -0.058265     0.049552    -0.021152     0.285198    -0.079271    -0.050479     0.129750
   25 Pt    11.221206     6.478568     4.581048    -0.083860     0.000376     0.002711     0.099866     0.099903     0.025833    -0.002496    -0.013582     0.031845     0.178582    -0.061059    -0.000665     0.061724
   26 Pt     9.818553     4.049103     4.581048    -0.060533    -0.003940     0.008442     0.116820     0.117191    -0.003704     0.034954    -0.005286    -0.016359     0.192834    -0.051074    -0.024188     0.075263
   27 Pt     8.415900     1.619638     4.581048    -0.070309     0.010322    -0.013275     0.081869     0.083579     0.004427     0.001465     0.001488    -0.052636     0.099600    -0.043311     0.009977     0.033334
   28 C      5.305434     3.535083     7.417848     0.093152    -0.022071    -0.101027    -0.046620     0.113433     0.011273     0.035081    -0.002917     0.050173     0.019067    -0.035288    -0.015400     0.050689
   29 C      6.030510     2.301663     7.928328    -0.379569    -0.031583     0.051039    -0.036112     0.070047    -0.015411     0.019001    -0.008417     0.005761    -0.070912    -0.031564    -0.002913     0.034477
   30 O      4.408173     3.130753     6.379656    -0.259515     0.096610     0.057000     0.021248     0.114166     0.002158     0.070890    -0.009476    -0.003390     0.244946    -0.075623    -0.038565     0.114189
   31 H      6.023066     4.294095     7.047216     0.053467     0.036678     0.028924    -0.015501     0.049216     0.005534     0.009423    -0.000181     0.001139    -0.004941    -0.011002    -0.000069     0.011071
   32 H      4.689188     4.004528     8.208264     0.080463    -0.033163     0.011072     0.030850     0.046627    -0.002450    -0.000593     0.001267     0.014053    -0.005875    -0.006741    -0.001741     0.008482
   33 H      6.724304     1.930692     7.151376     0.104279     0.018665    -0.006809    -0.019380     0.027755    -0.008729    -0.001249    -0.002797     0.003415    -0.016843    -0.008828    -0.002913     0.011741
   34 H      5.308241     1.505568     8.163360     0.133111    -0.024937    -0.017488     0.000502     0.030462     0.001708    -0.003405    -0.005511     0.005176    -0.032871    -0.013219     0.003360     0.009859
   35 H      6.610917     2.537639     8.834664     0.133959     0.015654     0.009370     0.019767     0.026899    -0.001335     0.008590     0.002214    -0.003614     0.004496    -0.009893     0.001478     0.008414
 
The sperically averaged electron density of each atom fit to a function of the form exp(a - br) for r >=rmin_cloud_penetration
atom number,atomic symbol, x, y, z, a, b, Rsquared where a and b are in atomic units and Rsquared is the squared correlation coefficient
    1 Pt     0.000000     0.000000     0.000000     0.615789     1.731994     0.999922
    2 Pt     2.805301     4.858922     0.000000     0.605309     1.730700     0.999930
    3 Pt     1.402649     2.429458     0.000000     0.612624     1.731057     0.999928
    4 Pt     2.805297     0.000000     0.000000     0.611806     1.730939     0.999929
    5 Pt     5.610599     4.858922     0.000000     0.607457     1.730853     0.999929
    6 Pt     4.207946     2.429458     0.000000     0.611508     1.730655     0.999934
    7 Pt     5.610603     0.000000     0.000000     0.614366     1.730908     0.999930
    8 Pt     8.415904     4.858922     0.000000     0.616412     1.730742     0.999935
    9 Pt     7.013251     2.429458     0.000000     0.606927     1.730881     0.999929
   10 Pt     4.207950     5.668742     2.290536     0.673473     1.753234     0.999997
   11 Pt     2.805301     3.239284     2.290536     0.692738     1.755823     0.999995
   12 Pt     1.402649     0.809819     2.290536     0.647899     1.751886     0.999996
   13 Pt     7.013247     5.668742     2.290536     0.655256     1.752757     0.999997
   14 Pt     5.610599     3.239284     2.290536     0.699520     1.756577     0.999995
   15 Pt     4.207946     0.809819     2.290536     0.678753     1.755144     0.999995
   16 Pt     9.818553     5.668742     2.290536     0.656641     1.752865     0.999997
   17 Pt     8.415904     3.239284     2.290536     0.656064     1.753195     0.999997
   18 Pt     7.013251     0.809819     2.290536     0.657135     1.752853     0.999996
   19 Pt     5.610603     6.478568     4.581048     0.815477     1.767131     0.999984
   20 Pt     4.207950     4.049103     4.581048     0.516809     1.759271     0.999934
   21 Pt     2.805297     1.619638     4.581048     0.708853     1.762555     0.999994
   22 Pt     8.415900     6.478568     4.581048     0.827233     1.767056     0.999988
   23 Pt     7.013247     4.049103     4.581048     0.697320     1.759779     0.999972
   24 Pt     5.610603     1.619638     4.581048     0.600593     1.757989     0.999961
   25 Pt    11.221206     6.478568     4.581048     0.784565     1.761581     0.999975
   26 Pt     9.818553     4.049103     4.581048     0.787010     1.764765     0.999995
   27 Pt     8.415900     1.619638     4.581048     0.783277     1.766120     0.999973
   28 C      5.305434     3.535083     7.417848    -1.087776     1.783859     0.999420
   29 C      6.030510     2.301663     7.928328    -0.866288     1.764661     0.999825
   30 O      4.408173     3.130753     6.379656    -1.089929     1.772096     0.999951
   31 H      6.023066     4.294095     7.047216    -2.297223     1.797136     0.999835
   32 H      4.689188     4.004528     8.208264    -3.385274     1.730220     0.999445
   33 H      6.724304     1.930692     7.151376    -1.972333     1.873749     0.999703
   34 H      5.308241     1.505568     8.163360    -3.035920     1.788200     0.999252
   35 H      6.610917     2.537639     8.834664    -3.799466     1.737944     0.995761
 
 2020/09/17  01:40:31
