   35
jmolscript: load "" {1 1 1} spacegroup "x,y,z" unitcell [{      8.415900     0.000000     0.000000 }, {      4.207950     7.288380     0.000000 }, {      0.000000     0.000000    24.000000 }]
Pt     0.000000     0.000000     0.000000    -0.042360
Pt     2.805301     4.858922     0.000000    -0.037384
Pt     1.402649     2.429458     0.000000    -0.038127
Pt     2.805297     0.000000     0.000000    -0.035618
Pt     5.610599     4.858922     0.000000    -0.030276
Pt     4.207946     2.429458     0.000000    -0.039222
Pt     5.610603     0.000000     0.000000    -0.037400
Pt     8.415904     4.858922     0.000000    -0.031722
Pt     7.013251     2.429458     0.000000    -0.029775
Pt     4.207950     5.668742     2.290536     0.078211
Pt     2.805301     3.239284     2.290536     0.076231
Pt     1.402649     0.809819     2.290536     0.074510
Pt     7.013247     5.668742     2.290536     0.046385
Pt     5.610599     3.239284     2.290536     0.046580
Pt     4.207946     0.809819     2.290536     0.073855
Pt     9.818553     5.668742     2.290536     0.066888
Pt     8.415904     3.239284     2.290536     0.037313
Pt     7.013251     0.809819     2.290536     0.066529
Pt     5.610603     6.478568     4.581048    -0.056774
Pt     4.207950     4.049103     4.581048    -0.131884
Pt     2.805297     1.619638     4.581048    -0.100395
Pt     8.415900     6.478568     4.581048    -0.053517
Pt     7.013247     4.049103     4.581048     0.022901
Pt     5.610603     1.619638     4.581048    -0.035282
Pt    11.221206     6.478568     4.581048    -0.072951
Pt     9.818553     4.049103     4.581048    -0.007598
Pt     8.415900     1.619638     4.581048    -0.030330
C      6.950675     4.128926     6.741624     0.193077
C      8.310773     4.176861     7.384752    -0.402322
O      6.243487     3.046849     7.245168    -0.375271
H      6.389002     5.075227     6.841464     0.056594
H      8.892585     3.270704     7.147368     0.137541
H      8.186903     4.235963     8.481720     0.157980
H      8.864156     5.064608     7.042344     0.129713
H      5.318251     3.098232     6.910392     0.323898
 
 Chargemol version 3.5 September 26, 2017.
See ddec.sourceforge.net for latest version.
 
Computational parameters:
Number of radial integration shells =    100
Cutoff radius (pm) =    500
Error in the integrated total number of electrons before renormalization (e) =    3.5543E-05
Charge convergence tolerance =    1.0000E-05
Minimum radius for electron cloud penetration fitting (pm) =    200
Minimum decay exponent for electron density of buried atom tails =   1.7500
Maximum decay exponent for electron density of buried atom tails =  2.5000
Number of iterations to convergence =      7
 
The following XYZ coordinates are in angstroms. The atomic dipoles and quadrupoles are in atomic units.
atom number, atomic symbol, x, y, z, net_charge, dipole_x, dipole_y, dipole_z, dipole_mag, Qxy, Qxz, Qyz,Q(x^2-y^2), Q(3z^2 - R^2), three eigenvalues of traceless quadrupole moment tensor
    1 Pt     0.000000     0.000000     0.000000    -0.042360    -0.000039    -0.000031    -0.113643     0.113643     0.002014    -0.000243     0.002680     0.003513     0.126212    -0.023806    -0.018376     0.042182
    2 Pt     2.805301     4.858922     0.000000    -0.037384    -0.001219    -0.000084    -0.111954     0.111960     0.001464     0.000276    -0.001186    -0.006026     0.135805    -0.025988    -0.019303     0.045291
    3 Pt     1.402649     2.429458     0.000000    -0.038127    -0.001160     0.000926    -0.108309     0.108319     0.001554     0.001179    -0.000619    -0.003186     0.125729    -0.023207    -0.018729     0.041937
    4 Pt     2.805297     0.000000     0.000000    -0.035618    -0.001098    -0.002577    -0.111117     0.111152     0.000520     0.002601     0.006045     0.005325     0.143217    -0.027037    -0.021290     0.048328
    5 Pt     5.610599     4.858922     0.000000    -0.030276    -0.001215     0.000364    -0.111532     0.111539    -0.000586     0.007567    -0.004248    -0.003260     0.171998    -0.030958    -0.027238     0.058197
    6 Pt     4.207946     2.429458     0.000000    -0.039222     0.003199     0.000310    -0.110605     0.110652    -0.000978    -0.005999    -0.001218    -0.000890     0.141007    -0.025039    -0.022485     0.047524
    7 Pt     5.610603     0.000000     0.000000    -0.037400     0.000578     0.000750    -0.109874     0.109878    -0.002264    -0.001024    -0.000504     0.005008     0.134185    -0.025750    -0.018998     0.044748
    8 Pt     8.415904     4.858922     0.000000    -0.031722     0.001970     0.000103    -0.108542     0.108560    -0.000540    -0.006157    -0.004083    -0.000609     0.174518    -0.030322    -0.028468     0.058790
    9 Pt     7.013251     2.429458     0.000000    -0.029775    -0.000267    -0.001683    -0.107830     0.107844    -0.001234     0.000815     0.007510    -0.000608     0.161054    -0.028499    -0.025889     0.054388
   10 Pt     4.207950     5.668742     2.290536     0.078211    -0.001135    -0.002528     0.005170     0.005866    -0.000120    -0.002923    -0.005079    -0.009902     0.112629    -0.023875    -0.014301     0.038176
   11 Pt     2.805301     3.239284     2.290536     0.076231     0.004252    -0.000851     0.007526     0.008686     0.002020     0.006416    -0.000614     0.007184     0.105922    -0.021868    -0.014262     0.036130
   12 Pt     1.402649     0.809819     2.290536     0.074510     0.000828     0.000860     0.004139     0.004308    -0.001254     0.004214     0.001468     0.003272     0.105042    -0.019714    -0.015681     0.035394
   13 Pt     7.013247     5.668742     2.290536     0.046385     0.002008     0.015100    -0.015342     0.021620     0.002145    -0.000394     0.016743    -0.001853     0.100422    -0.022034    -0.016591     0.038625
   14 Pt     5.610599     3.239284     2.290536     0.046580    -0.016980    -0.005839    -0.014395     0.023014    -0.002040    -0.019148    -0.003548     0.002481     0.095263    -0.023160    -0.015602     0.038763
   15 Pt     4.207946     0.809819     2.290536     0.073855    -0.001619    -0.000732     0.006093     0.006346     0.002301    -0.002693     0.000356    -0.002542     0.102281    -0.019792    -0.014441     0.034233
   16 Pt     9.818553     5.668742     2.290536     0.066888    -0.000577     0.002559    -0.003502     0.004375    -0.001821     0.003151     0.004806    -0.001180     0.096417    -0.018565    -0.014232     0.032796
   17 Pt     8.415904     3.239284     2.290536     0.037313     0.012510    -0.008022    -0.024113     0.028325    -0.000488     0.010396    -0.008680     0.000436     0.087622    -0.017978    -0.015117     0.033095
   18 Pt     7.013251     0.809819     2.290536     0.066529     0.000783    -0.001484    -0.003544     0.003921    -0.000992    -0.000545    -0.004545     0.003592     0.092180    -0.017839    -0.013319     0.031159
   19 Pt     5.610603     6.478568     4.581048    -0.056774    -0.004765     0.003997     0.069093     0.069372     0.005438     0.009367    -0.014675    -0.002969     0.001297    -0.019947     0.003923     0.016024
   20 Pt     4.207950     4.049103     4.581048    -0.131884    -0.017789     0.019511     0.007312     0.027397     0.007754     0.002794     0.039172    -0.000102    -0.165090    -0.070653     0.023940     0.046714
   21 Pt     2.805297     1.619638     4.581048    -0.100395     0.001115    -0.004268     0.066029     0.066177     0.002863    -0.012926    -0.009574    -0.010084     0.009343    -0.016135    -0.002149     0.018284
   22 Pt     8.415900     6.478568     4.581048    -0.053517    -0.003784     0.011059     0.079780     0.080631     0.003887    -0.011919    -0.026687     0.003082     0.080348    -0.028159    -0.014469     0.042629
   23 Pt     7.013247     4.049103     4.581048     0.022901    -0.004274    -0.004639    -0.102963     0.103156     0.004555     0.023351    -0.008036    -0.008963    -0.136685    -0.054196     0.024931     0.029265
   24 Pt     5.610603     1.619638     4.581048    -0.035282     0.012072    -0.009385     0.085901     0.087251     0.005269     0.045569    -0.010549     0.010496     0.065572    -0.043594    -0.012498     0.056092
   25 Pt    11.221206     6.478568     4.581048    -0.072951     0.006629     0.001521     0.083892     0.084167    -0.008949    -0.006867     0.009130    -0.007706     0.063740    -0.020381    -0.005698     0.026080
   26 Pt     9.818553     4.049103     4.581048    -0.007598     0.005888     0.001551     0.091324     0.091527    -0.002299    -0.033848     0.010971     0.022748     0.068931    -0.028804    -0.019868     0.048672
   27 Pt     8.415900     1.619638     4.581048    -0.030330    -0.008055    -0.009209     0.101097     0.101835    -0.004412    -0.035934     0.022105     0.009682     0.137875    -0.038508    -0.028650     0.067157
   28 C      6.950675     4.128926     6.741624     0.193077     0.029692    -0.087455     0.054352     0.107163     0.011056    -0.015480     0.003510    -0.047139    -0.003573    -0.033288     0.006659     0.026629
   29 C      8.310773     4.176861     7.384752    -0.402322    -0.046733    -0.007870    -0.018749     0.050965     0.012614     0.001771    -0.000455     0.013099    -0.115559    -0.038582     0.005087     0.033495
   30 O      6.243487     3.046849     7.245168    -0.375271     0.056878     0.070203    -0.033013     0.096195     0.084981    -0.007045    -0.016154     0.117803    -0.221651    -0.082385    -0.058834     0.141219
   31 H      6.389002     5.075227     6.841464     0.056594    -0.030680     0.060240     0.017024     0.069713    -0.000293    -0.004348     0.005157     0.001938    -0.007678    -0.007649     0.001076     0.006573
   32 H      8.892585     3.270704     7.147368     0.137541     0.011255    -0.026813    -0.004907     0.029491    -0.001351     0.006374    -0.001989    -0.001944    -0.027769    -0.011974     0.003968     0.008007
   33 H      8.186903     4.235963     8.481720     0.157980    -0.009100    -0.000588     0.023919     0.025598    -0.000945    -0.001153     0.001090     0.010550     0.010316    -0.007171     0.002344     0.004826
   34 H      8.864156     5.064608     7.042344     0.129713     0.014889     0.027761    -0.007123     0.032297     0.002823     0.005939     0.002020    -0.000670    -0.032011    -0.012724     0.002988     0.009737
   35 H      5.318251     3.098232     6.910392     0.323898    -0.035790    -0.003965     0.000442     0.036012     0.005210    -0.012523    -0.006410     0.000733    -0.030701    -0.017626     0.000404     0.017222
 
The sperically averaged electron density of each atom fit to a function of the form exp(a - br) for r >=rmin_cloud_penetration
atom number,atomic symbol, x, y, z, a, b, Rsquared where a and b are in atomic units and Rsquared is the squared correlation coefficient
    1 Pt     0.000000     0.000000     0.000000     0.622680     1.732785     0.999928
    2 Pt     2.805301     4.858922     0.000000     0.615254     1.731739     0.999932
    3 Pt     1.402649     2.429458     0.000000     0.617140     1.731694     0.999934
    4 Pt     2.805297     0.000000     0.000000     0.614944     1.731776     0.999932
    5 Pt     5.610599     4.858922     0.000000     0.610634     1.731684     0.999932
    6 Pt     4.207946     2.429458     0.000000     0.621211     1.732080     0.999933
    7 Pt     5.610603     0.000000     0.000000     0.615198     1.731635     0.999933
    8 Pt     8.415904     4.858922     0.000000     0.611260     1.731274     0.999937
    9 Pt     7.013251     2.429458     0.000000     0.611071     1.731531     0.999934
   10 Pt     4.207950     5.668742     2.290536     0.646666     1.751618     0.999996
   11 Pt     2.805301     3.239284     2.290536     0.646222     1.751756     0.999996
   12 Pt     1.402649     0.809819     2.290536     0.647862     1.751915     0.999996
   13 Pt     7.013247     5.668742     2.290536     0.663113     1.752862     0.999997
   14 Pt     5.610599     3.239284     2.290536     0.659820     1.752122     0.999997
   15 Pt     4.207946     0.809819     2.290536     0.647582     1.752031     0.999996
   16 Pt     9.818553     5.668742     2.290536     0.659712     1.753491     0.999995
   17 Pt     8.415904     3.239284     2.290536     0.672242     1.753985     0.999997
   18 Pt     7.013251     0.809819     2.290536     0.656422     1.752742     0.999995
   19 Pt     5.610603     6.478568     4.581048     0.801326     1.769214     0.999980
   20 Pt     4.207950     4.049103     4.581048     0.859868     1.774359     0.999990
   21 Pt     2.805297     1.619638     4.581048     0.914305     1.779221     0.999987
   22 Pt     8.415900     6.478568     4.581048     0.765787     1.769388     0.999986
   23 Pt     7.013247     4.049103     4.581048     0.582922     1.758052     0.999983
   24 Pt     5.610603     1.619638     4.581048     0.780131     1.770356     0.999987
   25 Pt    11.221206     6.478568     4.581048     0.885337     1.778294     0.999973
   26 Pt     9.818553     4.049103     4.581048     0.745700     1.771558     0.999989
   27 Pt     8.415900     1.619638     4.581048     0.727015     1.762393     0.999965
   28 C      6.950675     4.128926     6.741624    -0.788524     1.819578     0.999084
   29 C      8.310773     4.176861     7.384752    -0.854432     1.752403     0.999909
   30 O      6.243487     3.046849     7.245168    -1.486629     1.752361     0.999817
   31 H      6.389002     5.075227     6.841464    -2.510012     1.761118     0.999909
   32 H      8.892585     3.270704     7.147368    -2.306388     1.836214     0.999591
   33 H      8.186903     4.235963     8.481720    -4.309926     1.673110     0.989797
   34 H      8.864156     5.064608     7.042344    -2.420044     1.820552     0.999805
   35 H      5.318251     3.098232     6.910392    -2.530704     1.848116     0.999211
 
 2020/09/16  20:05:36
