   35
jmolscript: load "" {1 1 1} spacegroup "x,y,z" unitcell [{      8.415900     0.000000     0.000000 }, {      4.207950     7.288380     0.000000 }, {      0.000000     0.000000    24.000000 }]
Pt     0.000000     0.000000     0.000000    -0.040342
Pt     2.805301     4.858922     0.000000    -0.032908
Pt     1.402649     2.429458     0.000000    -0.042482
Pt     2.805297     0.000000     0.000000    -0.039614
Pt     5.610599     4.858922     0.000000    -0.028710
Pt     4.207946     2.429458     0.000000    -0.028504
Pt     5.610603     0.000000     0.000000    -0.038633
Pt     8.415904     4.858922     0.000000    -0.046917
Pt     7.013251     2.429458     0.000000    -0.037905
Pt     4.207950     5.668742     2.290536     0.043334
Pt     2.805301     3.239284     2.290536     0.034778
Pt     1.402649     0.809819     2.290536     0.082744
Pt     7.013247     5.668742     2.290536     0.079141
Pt     5.610599     3.239284     2.290536     0.008240
Pt     4.207946     0.809819     2.290536     0.045280
Pt     9.818553     5.668742     2.290536     0.081394
Pt     8.415904     3.239284     2.290536     0.086531
Pt     7.013251     0.809819     2.290536     0.063773
Pt     5.610603     6.478568     4.581048    -0.066123
Pt     4.207950     4.049103     4.581048     0.115291
Pt     2.805297     1.619638     4.581048    -0.033529
Pt     8.415900     6.478568     4.581048    -0.088545
Pt     7.013247     4.049103     4.581048    -0.079071
Pt     5.610603     1.619638     4.581048     0.096985
Pt    11.221206     6.478568     4.581048    -0.101703
Pt     9.818553     4.049103     4.581048    -0.061920
Pt     8.415900     1.619638     4.581048    -0.151819
C      5.360773     3.261863     7.305768     0.100479
C      4.190975     3.966118     6.668904    -0.314673
O      5.439007     1.872538     6.850200    -0.345696
H      6.312152     3.774025     7.065288     0.058068
H      5.226207     3.225691     8.403936     0.086106
H      6.284085     1.488739     7.161408     0.351325
H      3.238034     3.492344     6.951816     0.122097
H      4.186952     5.014843     7.006344     0.123533
 
 Chargemol version 3.5 September 26, 2017.
See ddec.sourceforge.net for latest version.
 
Computational parameters:
Number of radial integration shells =    100
Cutoff radius (pm) =    500
Error in the integrated total number of electrons before renormalization (e) =    3.0196E-05
Charge convergence tolerance =    1.0000E-05
Minimum radius for electron cloud penetration fitting (pm) =    200
Minimum decay exponent for electron density of buried atom tails =   1.7500
Maximum decay exponent for electron density of buried atom tails =  2.5000
Number of iterations to convergence =      7
 
The following XYZ coordinates are in angstroms. The atomic dipoles and quadrupoles are in atomic units.
atom number, atomic symbol, x, y, z, net_charge, dipole_x, dipole_y, dipole_z, dipole_mag, Qxy, Qxz, Qyz,Q(x^2-y^2), Q(3z^2 - R^2), three eigenvalues of traceless quadrupole moment tensor
    1 Pt     0.000000     0.000000     0.000000    -0.040342     0.003386    -0.005660    -0.117171     0.117356     0.000066    -0.007521     0.010220     0.004463     0.166273    -0.031322    -0.025981     0.057303
    2 Pt     2.805301     4.858922     0.000000    -0.032908    -0.001335    -0.000805    -0.105352     0.105363     0.003346     0.007434    -0.006361     0.000926     0.161773    -0.031441    -0.023607     0.055047
    3 Pt     1.402649     2.429458     0.000000    -0.042482     0.002783     0.002886    -0.106472     0.106547    -0.000471    -0.000441    -0.000862    -0.005972     0.117228    -0.022565    -0.016527     0.039092
    4 Pt     2.805297     0.000000     0.000000    -0.039614    -0.001617    -0.000939    -0.109120     0.109136    -0.002145     0.007782     0.004824     0.006791     0.139820    -0.027978    -0.019805     0.047783
    5 Pt     5.610599     4.858922     0.000000    -0.028710     0.000052     0.001142    -0.106126     0.106132    -0.001942    -0.005269    -0.011576    -0.001149     0.181520    -0.033701    -0.028535     0.062236
    6 Pt     4.207946     2.429458     0.000000    -0.028504     0.002171    -0.002275    -0.098036     0.098087    -0.001600     0.002137     0.006334     0.002229     0.183230    -0.032954    -0.028599     0.061552
    7 Pt     5.610603     0.000000     0.000000    -0.038633    -0.000956     0.003552    -0.101790     0.101857     0.002248    -0.001296     0.003773     0.001520     0.127634    -0.023866    -0.018920     0.042786
    8 Pt     8.415904     4.858922     0.000000    -0.046917     0.001062    -0.000889    -0.106804     0.106813    -0.001634    -0.001429     0.000659    -0.003291     0.110040    -0.020679    -0.016046     0.036725
    9 Pt     7.013251     2.429458     0.000000    -0.037905    -0.004821     0.000068    -0.101294     0.101408     0.002014    -0.002507    -0.000573    -0.000468     0.128097    -0.023411    -0.019392     0.042803
   10 Pt     4.207950     5.668742     2.290536     0.043334    -0.002221     0.025412    -0.020705     0.032854    -0.004620    -0.003499     0.030343    -0.009927     0.082450    -0.026687    -0.018457     0.045144
   11 Pt     2.805301     3.239284     2.290536     0.034778    -0.018918    -0.012672    -0.028491     0.036472     0.000385    -0.028277    -0.010074    -0.002503     0.064081    -0.029266    -0.009915     0.039181
   12 Pt     1.402649     0.809819     2.290536     0.082744    -0.002150     0.002546     0.011254     0.011737     0.007355    -0.003829     0.002989     0.006567     0.109267    -0.026601    -0.010209     0.036810
   13 Pt     7.013247     5.668742     2.290536     0.079141     0.002611    -0.001519     0.005604     0.006367     0.005572     0.007027     0.000719    -0.007097     0.108174    -0.025198    -0.011742     0.036940
   14 Pt     5.610599     3.239284     2.290536     0.008240     0.020455     0.000921    -0.042179     0.046887     0.001259     0.026842     0.005447     0.000356     0.043751    -0.025445    -0.007909     0.033355
   15 Pt     4.207946     0.809819     2.290536     0.045280    -0.012525    -0.008295    -0.021357     0.026111     0.001303    -0.011911    -0.016497     0.001275     0.062792    -0.019736    -0.011406     0.031142
   16 Pt     9.818553     5.668742     2.290536     0.081394    -0.000163     0.002681     0.004109     0.004909    -0.001420    -0.003573     0.000883     0.000026     0.112880    -0.020299    -0.017570     0.037869
   17 Pt     8.415904     3.239284     2.290536     0.086531    -0.002168    -0.002036     0.008813     0.009302    -0.001141     0.001059    -0.001544     0.014189     0.115145    -0.026409    -0.012033     0.038442
   18 Pt     7.013251     0.809819     2.290536     0.063773     0.016430    -0.008135    -0.010655     0.021205    -0.010037     0.016174    -0.008101    -0.000363     0.085358    -0.025133    -0.011128     0.036260
   19 Pt     5.610603     6.478568     4.581048    -0.066123    -0.003400     0.007122     0.066812     0.067277    -0.002894    -0.005411    -0.044252     0.007309    -0.022489    -0.048745     0.007961     0.040784
   20 Pt     4.207950     4.049103     4.581048     0.115291    -0.010006     0.014264    -0.040214     0.043826    -0.004434     0.003886    -0.024035     0.008985     0.217567    -0.046517    -0.031095     0.077612
   21 Pt     2.805297     1.619638     4.581048    -0.033529    -0.000187    -0.005836     0.101753     0.101920    -0.003059     0.065956     0.029400     0.009720     0.107246    -0.067875    -0.018509     0.086385
   22 Pt     8.415900     6.478568     4.581048    -0.088545     0.000081    -0.000445     0.078653     0.078654    -0.003420     0.011934     0.032288    -0.000139     0.017923    -0.034582    -0.000777     0.035360
   23 Pt     7.013247     4.049103     4.581048    -0.079071     0.007753     0.006206     0.043067     0.044197    -0.001362    -0.046744     0.000037     0.004058    -0.074468    -0.055898     0.010352     0.045545
   24 Pt     5.610603     1.619638     4.581048     0.096985    -0.019716    -0.003099     0.095342     0.097409     0.007514    -0.070488     0.035738    -0.012848     0.331346    -0.095431    -0.045357     0.140788
   25 Pt    11.221206     6.478568     4.581048    -0.101703     0.004755    -0.013088     0.050668     0.052546     0.006182    -0.005023    -0.054742     0.018170    -0.026426    -0.061531     0.011759     0.049772
   26 Pt     9.818553     4.049103     4.581048    -0.061920    -0.002870     0.003531     0.072794     0.072937     0.005849     0.048734     0.012382    -0.008657    -0.021237    -0.053195     0.004315     0.048880
   27 Pt     8.415900     1.619638     4.581048    -0.151819     0.021956    -0.001926     0.015288     0.026824    -0.002866     0.011045     0.015097    -0.024650    -0.201412    -0.070517     0.022564     0.047952
   28 C      5.360773     3.261863     7.305768     0.100479    -0.069966    -0.071411    -0.080617     0.128428     0.010094    -0.008626     0.043375    -0.118448    -0.100075    -0.057475    -0.033891     0.091366
   29 C      4.190975     3.966118     6.668904    -0.314673     0.040395    -0.038815    -0.030318     0.063699    -0.003806    -0.001964     0.003971    -0.033862     0.022397    -0.021168     0.005434     0.015734
   30 O      5.439007     1.872538     6.850200    -0.345696    -0.017588     0.120499    -0.040161     0.128228    -0.096019     0.050650     0.045812    -0.084412    -0.029612    -0.136124     0.025155     0.110969
   31 H      6.312152     3.774025     7.065288     0.058068     0.038437     0.031658    -0.017126     0.052659    -0.000819     0.004731     0.006855    -0.005440    -0.029677    -0.013667     0.003557     0.010111
   32 H      5.226207     3.225691     8.403936     0.086106    -0.019320    -0.001389     0.044936     0.048933    -0.001800    -0.003389    -0.000093    -0.011955     0.000374    -0.007747     0.001535     0.006211
   33 H      6.284085     1.488739     7.161408     0.351325     0.036712    -0.021106     0.019078     0.046446    -0.007231     0.020130    -0.003280    -0.002595     0.000272    -0.021175    -0.000975     0.022150
   34 H      3.238034     3.492344     6.951816     0.122097    -0.035474    -0.022815     0.011631     0.043752    -0.001649    -0.005077    -0.005650     0.001573    -0.006380    -0.009039     0.002743     0.006296
   35 H      4.186952     5.014843     7.006344     0.123533     0.002913     0.041180     0.012966     0.043271    -0.001788     0.003192     0.008206     0.000341    -0.007968    -0.010283     0.002545     0.007738
 
The sperically averaged electron density of each atom fit to a function of the form exp(a - br) for r >=rmin_cloud_penetration
atom number,atomic symbol, x, y, z, a, b, Rsquared where a and b are in atomic units and Rsquared is the squared correlation coefficient
    1 Pt     0.000000     0.000000     0.000000     0.607629     1.729874     0.999916
    2 Pt     2.805301     4.858922     0.000000     0.600751     1.728620     0.999924
    3 Pt     1.402649     2.429458     0.000000     0.608256     1.728790     0.999924
    4 Pt     2.805297     0.000000     0.000000     0.603803     1.728657     0.999923
    5 Pt     5.610599     4.858922     0.000000     0.596223     1.728603     0.999922
    6 Pt     4.207946     2.429458     0.000000     0.602026     1.728203     0.999930
    7 Pt     5.610603     0.000000     0.000000     0.605522     1.728441     0.999925
    8 Pt     8.415904     4.858922     0.000000     0.608829     1.728362     0.999928
    9 Pt     7.013251     2.429458     0.000000     0.605613     1.728463     0.999926
   10 Pt     4.207950     5.668742     2.290536     0.657646     1.751624     0.999997
   11 Pt     2.805301     3.239284     2.290536     0.674228     1.754160     0.999996
   12 Pt     1.402649     0.809819     2.290536     0.634058     1.750268     0.999996
   13 Pt     7.013247     5.668742     2.290536     0.649053     1.752168     0.999996
   14 Pt     5.610599     3.239284     2.290536     0.690422     1.755029     0.999996
   15 Pt     4.207946     0.809819     2.290536     0.674194     1.754454     0.999995
   16 Pt     9.818553     5.668742     2.290536     0.650342     1.752129     0.999995
   17 Pt     8.415904     3.239284     2.290536     0.640166     1.751204     0.999996
   18 Pt     7.013251     0.809819     2.290536     0.649954     1.751402     0.999997
   19 Pt     5.610603     6.478568     4.581048     0.765890     1.757777     0.999984
   20 Pt     4.207950     4.049103     4.581048     0.517923     1.753532     0.999977
   21 Pt     2.805297     1.619638     4.581048     0.684209     1.752905     0.999980
   22 Pt     8.415900     6.478568     4.581048     0.826717     1.763733     0.999987
   23 Pt     7.013247     4.049103     4.581048     0.738932     1.758736     0.999989
   24 Pt     5.610603     1.619638     4.581048     0.560617     1.755678     0.999977
   25 Pt    11.221206     6.478568     4.581048     0.782552     1.762013     0.999972
   26 Pt     9.818553     4.049103     4.581048     0.790588     1.763970     0.999991
   27 Pt     8.415900     1.619638     4.581048     0.925383     1.771728     0.999990
   28 C      5.360773     3.261863     7.305768    -1.215480     1.779349     0.998278
   29 C      4.190975     3.966118     6.668904    -0.729275     1.735463     0.999963
   30 O      5.439007     1.872538     6.850200    -1.321562     1.747196     0.999817
   31 H      6.312152     3.774025     7.065288    -2.421738     1.779594     0.999787
   32 H      5.226207     3.225691     8.403936    -4.169078     1.675257     0.988866
   33 H      6.284085     1.488739     7.161408    -3.192003     1.730575     0.999790
   34 H      3.238034     3.492344     6.951816    -2.861956     1.723143     0.999974
   35 H      4.186952     5.014843     7.006344    -2.842561     1.724589     0.999951
 
 2020/09/16  19:46:52
