   36
jmolscript: load "" {1 1 1} spacegroup "x,y,z" unitcell [{      8.415900     0.000000     0.000000 }, {      4.207950     7.288380     0.000000 }, {      0.000000     0.000000    24.000000 }]
Pt     0.000000     0.000000     0.000000    -0.034449
Pt     2.805301     4.858922     0.000000    -0.036922
Pt     1.402649     2.429458     0.000000    -0.036433
Pt     2.805297     0.000000     0.000000    -0.033947
Pt     5.610599     4.858922     0.000000    -0.035235
Pt     4.207946     2.429458     0.000000    -0.034050
Pt     5.610603     0.000000     0.000000    -0.037239
Pt     8.415904     4.858922     0.000000    -0.037272
Pt     7.013251     2.429458     0.000000    -0.035992
Pt     4.207950     5.668742     2.290536     0.071036
Pt     2.805301     3.239284     2.290536     0.067308
Pt     1.402649     0.809819     2.290536     0.070073
Pt     7.013247     5.668742     2.290536     0.069051
Pt     5.610599     3.239284     2.290536     0.046769
Pt     4.207946     0.809819     2.290536     0.057446
Pt     9.818553     5.668742     2.290536     0.079596
Pt     8.415904     3.239284     2.290536     0.070233
Pt     7.013251     0.809819     2.290536     0.062952
Pt     5.610603     6.478568     4.581048    -0.059429
Pt     4.207950     4.049103     4.581048    -0.033809
Pt     2.805297     1.619638     4.581048    -0.028367
Pt     8.415900     6.478568     4.581048    -0.048207
Pt     7.013247     4.049103     4.581048    -0.003203
Pt     5.610603     1.619638     4.581048     0.043712
Pt    11.221206     6.478568     4.581048    -0.066214
Pt     9.818553     4.049103     4.581048    -0.091302
Pt     8.415900     1.619638     4.581048    -0.045231
C      5.429068     3.719545     7.865976     0.128694
C      6.762230     3.030428     8.051400    -0.375900
O      4.496552     2.734768     7.372056    -0.444643
H      5.521849     4.556724     7.144464     0.024903
H      5.056757     4.128656     8.824224     0.057065
H      7.159962     2.695258     7.075344     0.095499
H      6.649937     2.147499     8.699232     0.131682
H      7.490866     3.718298     8.506296     0.125357
H      3.661081     3.182027     7.128096     0.316469
 
 Chargemol version 3.5 September 26, 2017.
See ddec.sourceforge.net for latest version.
 
Computational parameters:
Number of radial integration shells =    100
Cutoff radius (pm) =    500
Error in the integrated total number of electrons before renormalization (e) =    7.4615E-05
Charge convergence tolerance =    1.0000E-05
Minimum radius for electron cloud penetration fitting (pm) =    200
Minimum decay exponent for electron density of buried atom tails =   1.7500
Maximum decay exponent for electron density of buried atom tails =  2.5000
Number of iterations to convergence =      7
 
The following XYZ coordinates are in angstroms. The atomic dipoles and quadrupoles are in atomic units.
atom number, atomic symbol, x, y, z, net_charge, dipole_x, dipole_y, dipole_z, dipole_mag, Qxy, Qxz, Qyz,Q(x^2-y^2), Q(3z^2 - R^2), three eigenvalues of traceless quadrupole moment tensor
    1 Pt     0.000000     0.000000     0.000000    -0.034449     0.001080     0.000354    -0.118906     0.118911    -0.000201    -0.003673     0.000033     0.000841     0.169224    -0.028678    -0.027889     0.056568
    2 Pt     2.805301     4.858922     0.000000    -0.036922     0.000115    -0.000473    -0.112102     0.112103     0.001852     0.001056    -0.001941    -0.001230     0.138455    -0.025083    -0.021137     0.046221
    3 Pt     1.402649     2.429458     0.000000    -0.036433    -0.000126     0.000343    -0.111427     0.111428     0.001496     0.001763     0.001350    -0.003695     0.141027    -0.025902    -0.021178     0.047080
    4 Pt     2.805297     0.000000     0.000000    -0.033947     0.000111     0.000068    -0.111958     0.111958    -0.000261     0.003462     0.001366     0.005499     0.151422    -0.028029    -0.022632     0.050661
    5 Pt     5.610599     4.858922     0.000000    -0.035235    -0.000286    -0.001341    -0.109444     0.109452    -0.001700     0.000352    -0.003132    -0.002838     0.142644    -0.026003    -0.021688     0.047690
    6 Pt     4.207946     2.429458     0.000000    -0.034050     0.001478     0.000121    -0.108277     0.108287     0.000020     0.000878    -0.000304     0.000035     0.154137    -0.025722    -0.025668     0.051390
    7 Pt     5.610603     0.000000     0.000000    -0.037239    -0.000612     0.001117    -0.109183     0.109190    -0.000040    -0.000282     0.002402     0.003786     0.131944    -0.023969    -0.020099     0.044067
    8 Pt     8.415904     4.858922     0.000000    -0.037272     0.000166    -0.000230    -0.112230     0.112231    -0.000577    -0.000886    -0.000499    -0.000232     0.145185    -0.024800    -0.023610     0.048409
    9 Pt     7.013251     2.429458     0.000000    -0.035992    -0.002036     0.000699    -0.107040     0.107061    -0.001507    -0.001462    -0.000756    -0.001617     0.131714    -0.023702    -0.020243     0.043945
   10 Pt     4.207950     5.668742     2.290536     0.071036    -0.000875     0.001429     0.001420     0.002196    -0.000608    -0.002429     0.000021    -0.009730     0.104345    -0.022396    -0.012489     0.034885
   11 Pt     2.805301     3.239284     2.290536     0.067308    -0.002655     0.001606     0.000333     0.003121     0.000237    -0.006066     0.003383     0.001464     0.096984    -0.017454    -0.015853     0.033307
   12 Pt     1.402649     0.809819     2.290536     0.070073    -0.000270    -0.000261     0.002435     0.002464     0.002529     0.000229     0.000210     0.004655     0.104836    -0.020910    -0.014037     0.034947
   13 Pt     7.013247     5.668742     2.290536     0.069051     0.000795     0.001476    -0.000300     0.001703     0.002466     0.002491     0.002437    -0.003221     0.107049    -0.020806    -0.015114     0.035920
   14 Pt     5.610599     3.239284     2.290536     0.046769    -0.000334     0.002133    -0.014620     0.014778    -0.000354     0.000411     0.004557    -0.000561     0.072467    -0.012766    -0.011961     0.024728
   15 Pt     4.207946     0.809819     2.290536     0.057446    -0.001825    -0.003033    -0.007581     0.008367     0.001015    -0.004221    -0.005913     0.000560     0.083060    -0.015106    -0.013840     0.028946
   16 Pt     9.818553     5.668742     2.290536     0.079596     0.000135    -0.001082     0.006321     0.006414    -0.001953    -0.000062    -0.003410    -0.003334     0.118792    -0.022403    -0.017395     0.039798
   17 Pt     8.415904     3.239284     2.290536     0.070233     0.002942     0.000827    -0.000326     0.003073     0.000434     0.006083     0.002656     0.004870     0.109572    -0.020825    -0.016521     0.037346
   18 Pt     7.013251     0.809819     2.290536     0.062952     0.002629    -0.002990    -0.006231     0.007395    -0.004101     0.002823    -0.004606     0.003398     0.091966    -0.019874    -0.011452     0.031326
   19 Pt     5.610603     6.478568     4.581048    -0.059429    -0.003084     0.011721     0.088641     0.089466     0.000027     0.004701     0.004527     0.013700     0.103280    -0.024420    -0.010837     0.035257
   20 Pt     4.207950     4.049103     4.581048    -0.033809     0.011813    -0.002355     0.070428     0.071451    -0.007964     0.043565    -0.013757    -0.006933     0.007556    -0.045087    -0.002809     0.047896
   21 Pt     2.805297     1.619638     4.581048    -0.028367     0.006445    -0.010559     0.107775     0.108482    -0.003200     0.032668    -0.017799     0.010392     0.165822    -0.038274    -0.031990     0.070264
   22 Pt     8.415900     6.478568     4.581048    -0.048207     0.004279    -0.000204     0.113310     0.113391    -0.009665     0.004696     0.014558     0.000444     0.168554    -0.039760    -0.018971     0.058730
   23 Pt     7.013247     4.049103     4.581048    -0.003203     0.005871     0.004610     0.103209     0.103478     0.005433    -0.010444    -0.008379     0.018165     0.155549    -0.036852    -0.017477     0.054329
   24 Pt     5.610603     1.619638     4.581048     0.043712    -0.015937     0.000556     0.157547     0.158352     0.000036    -0.013224     0.007585    -0.005284     0.305278    -0.054714    -0.048540     0.103254
   25 Pt    11.221206     6.478568     4.581048    -0.066214    -0.001042    -0.001889     0.095318     0.095342     0.010555    -0.008857     0.015347     0.016436     0.117046    -0.036998    -0.006157     0.043155
   26 Pt     9.818553     4.049103     4.581048    -0.091302    -0.011633     0.009195     0.074127     0.075595     0.004272    -0.029818     0.007851    -0.022458     0.047057    -0.037631     0.004065     0.033566
   27 Pt     8.415900     1.619638     4.581048    -0.045231     0.010744    -0.007956     0.092846     0.093803     0.006547    -0.006866    -0.000882    -0.018866     0.123910    -0.032671    -0.009329     0.042000
   28 C      5.429068     3.719545     7.865976     0.128694     0.007021    -0.130720    -0.033733     0.135185     0.040617     0.018333     0.016007     0.002941    -0.076602    -0.032697    -0.027599     0.060296
   29 C      6.762230     3.030428     8.051400    -0.375900    -0.066836     0.017859    -0.022533     0.072758     0.006660     0.011250     0.010442     0.026604    -0.077802    -0.030942    -0.000126     0.031068
   30 O      4.496552     2.734768     7.372056    -0.444643     0.097833     0.083328     0.023338     0.130612     0.016885     0.087303     0.055187     0.148708    -0.271023    -0.141582    -0.016204     0.157786
   31 H      5.521849     4.556724     7.144464     0.024903     0.012379     0.034565    -0.033608     0.049775     0.005337     0.007546    -0.001283    -0.006171    -0.028132    -0.013833     0.002554     0.011279
   32 H      5.056757     4.128656     8.824224     0.057065    -0.014867     0.007554     0.043867     0.046930     0.004156    -0.003362     0.001206     0.010634    -0.001263    -0.007324    -0.000605     0.007929
   33 H      7.159962     2.695258     7.075344     0.095499     0.003606    -0.008826    -0.023581     0.025435    -0.008099    -0.002145     0.002036     0.008382    -0.006239    -0.008148    -0.002660     0.010808
   34 H      6.649937     2.147499     8.699232     0.131682    -0.012548    -0.022808     0.011847     0.028601    -0.001096    -0.003890    -0.007958     0.000267    -0.007936    -0.010132     0.002247     0.007885
   35 H      7.490866     3.718298     8.506296     0.125357     0.017163     0.022373     0.009156     0.029648     0.001924     0.007102     0.007038     0.001965    -0.023812    -0.013191     0.001970     0.011221
   36 H      3.661081     3.182027     7.128096     0.316469    -0.037160     0.014726    -0.005003     0.040284    -0.000274    -0.003350     0.010246     0.009215    -0.047603    -0.020575     0.007316     0.013260
 
The sperically averaged electron density of each atom fit to a function of the form exp(a - br) for r >=rmin_cloud_penetration
atom number,atomic symbol, x, y, z, a, b, Rsquared where a and b are in atomic units and Rsquared is the squared correlation coefficient
    1 Pt     0.000000     0.000000     0.000000     0.619127     1.733305     0.999930
    2 Pt     2.805301     4.858922     0.000000     0.617936     1.732296     0.999934
    3 Pt     1.402649     2.429458     0.000000     0.617393     1.732286     0.999934
    4 Pt     2.805297     0.000000     0.000000     0.615087     1.732255     0.999934
    5 Pt     5.610599     4.858922     0.000000     0.616297     1.732158     0.999935
    6 Pt     4.207946     2.429458     0.000000     0.619710     1.732193     0.999938
    7 Pt     5.610603     0.000000     0.000000     0.618560     1.732182     0.999936
    8 Pt     8.415904     4.858922     0.000000     0.616648     1.731957     0.999938
    9 Pt     7.013251     2.429458     0.000000     0.617687     1.732066     0.999936
   10 Pt     4.207950     5.668742     2.290536     0.653784     1.752528     0.999996
   11 Pt     2.805301     3.239284     2.290536     0.657995     1.752946     0.999996
   12 Pt     1.402649     0.809819     2.290536     0.652723     1.752341     0.999996
   13 Pt     7.013247     5.668742     2.290536     0.660737     1.753863     0.999996
   14 Pt     5.610599     3.239284     2.290536     0.675889     1.755087     0.999996
   15 Pt     4.207946     0.809819     2.290536     0.670906     1.754933     0.999995
   16 Pt     9.818553     5.668742     2.290536     0.653739     1.752880     0.999996
   17 Pt     8.415904     3.239284     2.290536     0.658704     1.753396     0.999996
   18 Pt     7.013251     0.809819     2.290536     0.665731     1.754265     0.999996
   19 Pt     5.610603     6.478568     4.581048     0.796705     1.768535     0.999981
   20 Pt     4.207950     4.049103     4.581048     0.707892     1.763017     0.999938
   21 Pt     2.805297     1.619638     4.581048     0.757503     1.766925     0.999989
   22 Pt     8.415900     6.478568     4.581048     0.757007     1.760004     0.999981
   23 Pt     7.013247     4.049103     4.581048     0.646970     1.757960     0.999951
   24 Pt     5.610603     1.619638     4.581048     0.623996     1.756938     0.999931
   25 Pt    11.221206     6.478568     4.581048     0.807307     1.765009     0.999989
   26 Pt     9.818553     4.049103     4.581048     0.835743     1.769283     0.999978
   27 Pt     8.415900     1.619638     4.581048     0.764579     1.767508     0.999971
   28 C      5.429068     3.719545     7.865976    -0.956012     1.819693     0.999384
   29 C      6.762230     3.030428     8.051400    -0.702219     1.788034     0.999909
   30 O      4.496552     2.734768     7.372056    -1.295001     1.754945     0.999970
   31 H      5.521849     4.556724     7.144464    -2.203297     1.805480     0.999769
   32 H      5.056757     4.128656     8.824224    -3.425684     1.753156     0.998163
   33 H      7.159962     2.695258     7.075344    -2.022365     1.846744     0.999565
   34 H      6.649937     2.147499     8.699232    -3.252157     1.782222     0.998858
   35 H      7.490866     3.718298     8.506296    -3.320898     1.763597     0.998890
   36 H      3.661081     3.182027     7.128096    -2.463650     1.848451     0.999970
 
 2020/09/17  00:39:19
